data_image0
_chemical_formula_structural       Cu6048In140Sn4900
_chemical_formula_sum              "Cu6048 In140 Sn4900"
_cell_length_a       77.252
_cell_length_b       43.728
_cell_length_c       59.046
_cell_angle_alpha    90
_cell_angle_beta     98.81
_cell_angle_gamma    90

_space_group_name_H-M_alt    "P 1"
_space_group_IT_number       1

loop_
  _space_group_symop_operation_xyz
  'x, y, z'

loop_
  _atom_site_type_symbol
  _atom_site_label
  _atom_site_symmetry_multiplicity
  _atom_site_fract_x
  _atom_site_fract_y
  _atom_site_fract_z
  _atom_site_occupancy
  Cu  Cu1       1.0  0.01429  0.08103  0.03333  1.0000
  Cu  Cu2       1.0  0.12857  0.08563  0.13333  1.0000
  Cu  Cu3       1.0  0.12857  0.08103  0.05000  1.0000
  Cu  Cu4       1.0  0.01429  0.08563  0.11667  1.0000
  Cu  Cu5       1.0  0.08571  0.16437  0.03333  1.0000
  Cu  Cu6       1.0  0.05714  0.00230  0.13333  1.0000
  Cu  Cu7       1.0  0.05714  0.16437  0.05000  1.0000
  Cu  Cu8       1.0  0.08571  0.00230  0.11667  1.0000
  Cu  Cu9       1.0  0.04344  0.08448  0.10138  1.0000
  Cu  Cu10      1.0  0.09941  0.08218  0.06528  1.0000
  Cu  Cu11      1.0  0.09941  0.08448  0.14862  1.0000
  Cu  Cu12      1.0  0.04344  0.08218  0.01805  1.0000
  Cu  Cu13      1.0  0.11487  0.00115  0.10138  1.0000
  Cu  Cu14      1.0  0.02799  0.16552  0.06528  1.0000
  Cu  Cu15      1.0  0.02799  0.00115  0.14862  1.0000
  Cu  Cu16      1.0  0.11487  0.16552  0.01805  1.0000
  Cu  Cu17      1.0  0.00000  0.00000  0.00000  1.0000
  Cu  Cu18      1.0  0.00000  0.00000  0.08333  1.0000
  Cu  Cu19      1.0  0.07143  0.08333  0.00000  1.0000
  Cu  Cu20      1.0  0.07143  0.08333  0.08333  1.0000
  Cu  Cu21      1.0  0.00000  0.02778  0.04167  1.0000
  Cu  Cu22      1.0  0.00000  0.13888  0.12500  1.0000
  Cu  Cu23      1.0  0.07143  0.11112  0.04167  1.0000
  Cu  Cu24      1.0  0.07143  0.05555  0.12500  1.0000
  Cu  Cu25      1.0  0.01429  0.08103  0.20000  1.0000
  Cu  Cu26      1.0  0.12857  0.08563  0.30000  1.0000
  Cu  Cu27      1.0  0.12857  0.08103  0.21667  1.0000
  Cu  Cu28      1.0  0.01429  0.08563  0.28333  1.0000
  Cu  Cu29      1.0  0.08571  0.16437  0.20000  1.0000
  Cu  Cu30      1.0  0.05714  0.00230  0.30000  1.0000
  Cu  Cu31      1.0  0.05714  0.16437  0.21667  1.0000
  Cu  Cu32      1.0  0.08571  0.00230  0.28333  1.0000
  Cu  Cu33      1.0  0.04344  0.08448  0.26805  1.0000
  Cu  Cu34      1.0  0.09941  0.08218  0.23195  1.0000
  Cu  Cu35      1.0  0.09941  0.08448  0.31528  1.0000
  Cu  Cu36      1.0  0.04344  0.08218  0.18472  1.0000
  Cu  Cu37      1.0  0.11487  0.00115  0.26805  1.0000
  Cu  Cu38      1.0  0.02799  0.16552  0.23195  1.0000
  Cu  Cu39      1.0  0.02799  0.00115  0.31528  1.0000
  Cu  Cu40      1.0  0.11487  0.16552  0.18472  1.0000
  Cu  Cu41      1.0  0.00000  0.00000  0.16667  1.0000
  Cu  Cu42      1.0  0.00000  0.00000  0.25000  1.0000
  Cu  Cu43      1.0  0.07143  0.08333  0.16667  1.0000
  Cu  Cu44      1.0  0.07143  0.08333  0.25000  1.0000
  Cu  Cu45      1.0  0.00000  0.02778  0.20833  1.0000
  Cu  Cu46      1.0  0.00000  0.13888  0.29167  1.0000
  Cu  Cu47      1.0  0.07143  0.11112  0.20833  1.0000
  Cu  Cu48      1.0  0.07143  0.05555  0.29167  1.0000
  Cu  Cu49      1.0  0.01429  0.08103  0.36667  1.0000
  Cu  Cu50      1.0  0.12857  0.08563  0.46667  1.0000
  Cu  Cu51      1.0  0.12857  0.08103  0.38333  1.0000
  Cu  Cu52      1.0  0.01429  0.08563  0.45000  1.0000
  Cu  Cu53      1.0  0.08571  0.16437  0.36667  1.0000
  Cu  Cu54      1.0  0.05714  0.00230  0.46667  1.0000
  Cu  Cu55      1.0  0.05714  0.16437  0.38333  1.0000
  Cu  Cu56      1.0  0.08571  0.00230  0.45000  1.0000
  Cu  Cu57      1.0  0.04344  0.08448  0.43472  1.0000
  Cu  Cu58      1.0  0.09941  0.08218  0.39862  1.0000
  Cu  Cu59      1.0  0.09941  0.08448  0.48195  1.0000
  Cu  Cu60      1.0  0.04344  0.08218  0.35138  1.0000
  Cu  Cu61      1.0  0.11487  0.00115  0.43472  1.0000
  Cu  Cu62      1.0  0.02799  0.16552  0.39862  1.0000
  Cu  Cu63      1.0  0.02799  0.00115  0.48195  1.0000
  Cu  Cu64      1.0  0.11487  0.16552  0.35138  1.0000
  Cu  Cu65      1.0  0.00000  0.00000  0.33333  1.0000
  Cu  Cu66      1.0  0.00000  0.00000  0.41667  1.0000
  Cu  Cu67      1.0  0.07143  0.08333  0.33333  1.0000
  Cu  Cu68      1.0  0.07143  0.08333  0.41667  1.0000
  Cu  Cu69      1.0  0.00000  0.02778  0.37500  1.0000
  Cu  Cu70      1.0  0.00000  0.13888  0.45833  1.0000
  Cu  Cu71      1.0  0.07143  0.11112  0.37500  1.0000
  Cu  Cu72      1.0  0.07143  0.05555  0.45833  1.0000
  Cu  Cu73      1.0  0.01429  0.08103  0.53333  1.0000
  Cu  Cu74      1.0  0.12857  0.08563  0.63333  1.0000
  Cu  Cu75      1.0  0.12857  0.08103  0.55000  1.0000
  Cu  Cu76      1.0  0.01429  0.08563  0.61667  1.0000
  Cu  Cu77      1.0  0.08571  0.16437  0.53333  1.0000
  Cu  Cu78      1.0  0.05714  0.00230  0.63333  1.0000
  Cu  Cu79      1.0  0.05714  0.16437  0.55000  1.0000
  Cu  Cu80      1.0  0.08571  0.00230  0.61667  1.0000
  Cu  Cu81      1.0  0.04344  0.08448  0.60138  1.0000
  Cu  Cu82      1.0  0.09941  0.08218  0.56528  1.0000
  Cu  Cu83      1.0  0.09941  0.08448  0.64862  1.0000
  Cu  Cu84      1.0  0.04344  0.08218  0.51805  1.0000
  Cu  Cu85      1.0  0.11487  0.00115  0.60138  1.0000
  Cu  Cu86      1.0  0.02799  0.16552  0.56528  1.0000
  Cu  Cu87      1.0  0.02799  0.00115  0.64862  1.0000
  Cu  Cu88      1.0  0.11487  0.16552  0.51805  1.0000
  Cu  Cu89      1.0  0.00000  0.00000  0.50000  1.0000
  Cu  Cu90      1.0  0.00000  0.00000  0.58333  1.0000
  Cu  Cu91      1.0  0.07143  0.08333  0.50000  1.0000
  Cu  Cu92      1.0  0.07143  0.08333  0.58333  1.0000
  Cu  Cu93      1.0  0.00000  0.02778  0.54167  1.0000
  Cu  Cu94      1.0  0.00000  0.13888  0.62500  1.0000
  Cu  Cu95      1.0  0.07143  0.11112  0.54167  1.0000
  Cu  Cu96      1.0  0.07143  0.05555  0.62500  1.0000
  Cu  Cu97      1.0  0.01429  0.08103  0.70000  1.0000
  Cu  Cu98      1.0  0.12857  0.08563  0.80000  1.0000
  Cu  Cu99      1.0  0.12857  0.08103  0.71667  1.0000
  Cu  Cu100     1.0  0.01429  0.08563  0.78333  1.0000
  Cu  Cu101     1.0  0.08571  0.16437  0.70000  1.0000
  Cu  Cu102     1.0  0.05714  0.00230  0.80000  1.0000
  Cu  Cu103     1.0  0.05714  0.16437  0.71667  1.0000
  Cu  Cu104     1.0  0.08571  0.00230  0.78333  1.0000
  Cu  Cu105     1.0  0.04344  0.08448  0.76805  1.0000
  Cu  Cu106     1.0  0.09941  0.08218  0.73195  1.0000
  Cu  Cu107     1.0  0.09941  0.08448  0.81528  1.0000
  Cu  Cu108     1.0  0.04344  0.08218  0.68472  1.0000
  Cu  Cu109     1.0  0.11487  0.00115  0.76805  1.0000
  Cu  Cu110     1.0  0.02799  0.16552  0.73195  1.0000
  Cu  Cu111     1.0  0.02799  0.00115  0.81528  1.0000
  Cu  Cu112     1.0  0.11487  0.16552  0.68472  1.0000
  Cu  Cu113     1.0  0.00000  0.00000  0.66667  1.0000
  Cu  Cu114     1.0  0.00000  0.00000  0.75000  1.0000
  Cu  Cu115     1.0  0.07143  0.08333  0.66667  1.0000
  Cu  Cu116     1.0  0.07143  0.08333  0.75000  1.0000
  Cu  Cu117     1.0  0.00000  0.02778  0.70833  1.0000
  Cu  Cu118     1.0  0.00000  0.13888  0.79167  1.0000
  Cu  Cu119     1.0  0.07143  0.11112  0.70833  1.0000
  Cu  Cu120     1.0  0.07143  0.05555  0.79167  1.0000
  Cu  Cu121     1.0  0.01429  0.08103  0.86667  1.0000
  Cu  Cu122     1.0  0.12857  0.08563  0.96667  1.0000
  Cu  Cu123     1.0  0.12857  0.08103  0.88333  1.0000
  Cu  Cu124     1.0  0.01429  0.08563  0.95000  1.0000
  Cu  Cu125     1.0  0.08571  0.16437  0.86667  1.0000
  Cu  Cu126     1.0  0.05714  0.00230  0.96667  1.0000
  Cu  Cu127     1.0  0.05714  0.16437  0.88333  1.0000
  Cu  Cu128     1.0  0.08571  0.00230  0.95000  1.0000
  Cu  Cu129     1.0  0.04344  0.08448  0.93472  1.0000
  Cu  Cu130     1.0  0.09941  0.08218  0.89862  1.0000
  Cu  Cu131     1.0  0.09941  0.08448  0.98195  1.0000
  Cu  Cu132     1.0  0.04344  0.08218  0.85138  1.0000
  Cu  Cu133     1.0  0.11487  0.00115  0.93472  1.0000
  Cu  Cu134     1.0  0.02799  0.16552  0.89862  1.0000
  Cu  Cu135     1.0  0.02799  0.00115  0.98195  1.0000
  Cu  Cu136     1.0  0.11487  0.16552  0.85138  1.0000
  Cu  Cu137     1.0  0.00000  0.00000  0.83333  1.0000
  Cu  Cu138     1.0  0.00000  0.00000  0.91667  1.0000
  Cu  Cu139     1.0  0.07143  0.08333  0.83333  1.0000
  Cu  Cu140     1.0  0.07143  0.08333  0.91667  1.0000
  Cu  Cu141     1.0  0.00000  0.02778  0.87500  1.0000
  Cu  Cu142     1.0  0.00000  0.13888  0.95833  1.0000
  Cu  Cu143     1.0  0.07143  0.11112  0.87500  1.0000
  Cu  Cu144     1.0  0.07143  0.05555  0.95833  1.0000
  Cu  Cu145     1.0  0.01429  0.24770  0.03333  1.0000
  Cu  Cu146     1.0  0.12857  0.25230  0.13333  1.0000
  Cu  Cu147     1.0  0.12857  0.24770  0.05000  1.0000
  Cu  Cu148     1.0  0.01429  0.25230  0.11667  1.0000
  Cu  Cu149     1.0  0.08571  0.33103  0.03333  1.0000
  Cu  Cu150     1.0  0.05714  0.16897  0.13333  1.0000
  Cu  Cu151     1.0  0.05714  0.33103  0.05000  1.0000
  Cu  Cu152     1.0  0.08571  0.16897  0.11667  1.0000
  Cu  Cu153     1.0  0.04344  0.25115  0.10138  1.0000
  Cu  Cu154     1.0  0.09941  0.24885  0.06528  1.0000
  Cu  Cu155     1.0  0.09941  0.25115  0.14862  1.0000
  Cu  Cu156     1.0  0.04344  0.24885  0.01805  1.0000
  Cu  Cu157     1.0  0.11487  0.16782  0.10138  1.0000
  Cu  Cu158     1.0  0.02799  0.33218  0.06528  1.0000
  Cu  Cu159     1.0  0.02799  0.16782  0.14862  1.0000
  Cu  Cu160     1.0  0.11487  0.33218  0.01805  1.0000
  Cu  Cu161     1.0  0.00000  0.16667  0.00000  1.0000
  Cu  Cu162     1.0  0.00000  0.16667  0.08333  1.0000
  Cu  Cu163     1.0  0.07143  0.25000  0.00000  1.0000
  Cu  Cu164     1.0  0.07143  0.25000  0.08333  1.0000
  Cu  Cu165     1.0  0.00000  0.19445  0.04167  1.0000
  Cu  Cu166     1.0  0.00000  0.30555  0.12500  1.0000
  Cu  Cu167     1.0  0.07143  0.27778  0.04167  1.0000
  Cu  Cu168     1.0  0.07143  0.22222  0.12500  1.0000
  Cu  Cu169     1.0  0.01429  0.24770  0.20000  1.0000
  Cu  Cu170     1.0  0.12857  0.25230  0.30000  1.0000
  Cu  Cu171     1.0  0.12857  0.24770  0.21667  1.0000
  Cu  Cu172     1.0  0.01429  0.25230  0.28333  1.0000
  Cu  Cu173     1.0  0.08571  0.33103  0.20000  1.0000
  Cu  Cu174     1.0  0.05714  0.16897  0.30000  1.0000
  Cu  Cu175     1.0  0.05714  0.33103  0.21667  1.0000
  Cu  Cu176     1.0  0.08571  0.16897  0.28333  1.0000
  Cu  Cu177     1.0  0.04344  0.25115  0.26805  1.0000
  Cu  Cu178     1.0  0.09941  0.24885  0.23195  1.0000
  Cu  Cu179     1.0  0.09941  0.25115  0.31528  1.0000
  Cu  Cu180     1.0  0.04344  0.24885  0.18472  1.0000
  Cu  Cu181     1.0  0.11487  0.16782  0.26805  1.0000
  Cu  Cu182     1.0  0.02799  0.33218  0.23195  1.0000
  Cu  Cu183     1.0  0.02799  0.16782  0.31528  1.0000
  Cu  Cu184     1.0  0.11487  0.33218  0.18472  1.0000
  Cu  Cu185     1.0  0.00000  0.16667  0.16667  1.0000
  Cu  Cu186     1.0  0.00000  0.16667  0.25000  1.0000
  Cu  Cu187     1.0  0.07143  0.25000  0.16667  1.0000
  Cu  Cu188     1.0  0.07143  0.25000  0.25000  1.0000
  Cu  Cu189     1.0  0.00000  0.19445  0.20833  1.0000
  Cu  Cu190     1.0  0.00000  0.30555  0.29167  1.0000
  Cu  Cu191     1.0  0.07143  0.27778  0.20833  1.0000
  Cu  Cu192     1.0  0.07143  0.22222  0.29167  1.0000
  Cu  Cu193     1.0  0.01429  0.24770  0.36667  1.0000
  Cu  Cu194     1.0  0.12857  0.25230  0.46667  1.0000
  Cu  Cu195     1.0  0.12857  0.24770  0.38333  1.0000
  Cu  Cu196     1.0  0.01429  0.25230  0.45000  1.0000
  Cu  Cu197     1.0  0.08571  0.33103  0.36667  1.0000
  Cu  Cu198     1.0  0.05714  0.16897  0.46667  1.0000
  Cu  Cu199     1.0  0.05714  0.33103  0.38333  1.0000
  Cu  Cu200     1.0  0.08571  0.16897  0.45000  1.0000
  Cu  Cu201     1.0  0.04344  0.25115  0.43472  1.0000
  Cu  Cu202     1.0  0.09941  0.24885  0.39862  1.0000
  Cu  Cu203     1.0  0.09941  0.25115  0.48195  1.0000
  Cu  Cu204     1.0  0.04344  0.24885  0.35138  1.0000
  Cu  Cu205     1.0  0.11487  0.16782  0.43472  1.0000
  Cu  Cu206     1.0  0.02799  0.33218  0.39862  1.0000
  Cu  Cu207     1.0  0.02799  0.16782  0.48195  1.0000
  Cu  Cu208     1.0  0.11487  0.33218  0.35138  1.0000
  Cu  Cu209     1.0  0.00000  0.16667  0.33333  1.0000
  Cu  Cu210     1.0  0.00000  0.16667  0.41667  1.0000
  Cu  Cu211     1.0  0.07143  0.25000  0.33333  1.0000
  Cu  Cu212     1.0  0.07143  0.25000  0.41667  1.0000
  Cu  Cu213     1.0  0.00000  0.19445  0.37500  1.0000
  Cu  Cu214     1.0  0.00000  0.30555  0.45833  1.0000
  Cu  Cu215     1.0  0.07143  0.27778  0.37500  1.0000
  Cu  Cu216     1.0  0.07143  0.22222  0.45833  1.0000
  Cu  Cu217     1.0  0.01429  0.24770  0.53333  1.0000
  Cu  Cu218     1.0  0.12857  0.25230  0.63333  1.0000
  Cu  Cu219     1.0  0.12857  0.24770  0.55000  1.0000
  Cu  Cu220     1.0  0.01429  0.25230  0.61667  1.0000
  Cu  Cu221     1.0  0.08571  0.33103  0.53333  1.0000
  Cu  Cu222     1.0  0.05714  0.16897  0.63333  1.0000
  Cu  Cu223     1.0  0.05714  0.33103  0.55000  1.0000
  Cu  Cu224     1.0  0.08571  0.16897  0.61667  1.0000
  Cu  Cu225     1.0  0.04344  0.25115  0.60138  1.0000
  Cu  Cu226     1.0  0.09941  0.24885  0.56528  1.0000
  Cu  Cu227     1.0  0.09941  0.25115  0.64862  1.0000
  Cu  Cu228     1.0  0.04344  0.24885  0.51805  1.0000
  Cu  Cu229     1.0  0.11487  0.16782  0.60138  1.0000
  Cu  Cu230     1.0  0.02799  0.33218  0.56528  1.0000
  Cu  Cu231     1.0  0.02799  0.16782  0.64862  1.0000
  Cu  Cu232     1.0  0.11487  0.33218  0.51805  1.0000
  Cu  Cu233     1.0  0.00000  0.16667  0.50000  1.0000
  Cu  Cu234     1.0  0.00000  0.16667  0.58333  1.0000
  Cu  Cu235     1.0  0.07143  0.25000  0.50000  1.0000
  Cu  Cu236     1.0  0.07143  0.25000  0.58333  1.0000
  Cu  Cu237     1.0  0.00000  0.19445  0.54167  1.0000
  Cu  Cu238     1.0  0.00000  0.30555  0.62500  1.0000
  Cu  Cu239     1.0  0.07143  0.27778  0.54167  1.0000
  Cu  Cu240     1.0  0.07143  0.22222  0.62500  1.0000
  Cu  Cu241     1.0  0.01429  0.24770  0.70000  1.0000
  Cu  Cu242     1.0  0.12857  0.25230  0.80000  1.0000
  Cu  Cu243     1.0  0.12857  0.24770  0.71667  1.0000
  Cu  Cu244     1.0  0.01429  0.25230  0.78333  1.0000
  Cu  Cu245     1.0  0.08571  0.33103  0.70000  1.0000
  Cu  Cu246     1.0  0.05714  0.16897  0.80000  1.0000
  Cu  Cu247     1.0  0.05714  0.33103  0.71667  1.0000
  Cu  Cu248     1.0  0.08571  0.16897  0.78333  1.0000
  Cu  Cu249     1.0  0.04344  0.25115  0.76805  1.0000
  Cu  Cu250     1.0  0.09941  0.24885  0.73195  1.0000
  Cu  Cu251     1.0  0.09941  0.25115  0.81528  1.0000
  Cu  Cu252     1.0  0.04344  0.24885  0.68472  1.0000
  Cu  Cu253     1.0  0.11487  0.16782  0.76805  1.0000
  Cu  Cu254     1.0  0.02799  0.33218  0.73195  1.0000
  Cu  Cu255     1.0  0.02799  0.16782  0.81528  1.0000
  Cu  Cu256     1.0  0.11487  0.33218  0.68472  1.0000
  Cu  Cu257     1.0  0.00000  0.16667  0.66667  1.0000
  Cu  Cu258     1.0  0.00000  0.16667  0.75000  1.0000
  Cu  Cu259     1.0  0.07143  0.25000  0.66667  1.0000
  Cu  Cu260     1.0  0.07143  0.25000  0.75000  1.0000
  Cu  Cu261     1.0  0.00000  0.19445  0.70833  1.0000
  Cu  Cu262     1.0  0.00000  0.30555  0.79167  1.0000
  Cu  Cu263     1.0  0.07143  0.27778  0.70833  1.0000
  Cu  Cu264     1.0  0.07143  0.22222  0.79167  1.0000
  Cu  Cu265     1.0  0.01429  0.24770  0.86667  1.0000
  Cu  Cu266     1.0  0.12857  0.25230  0.96667  1.0000
  Cu  Cu267     1.0  0.12857  0.24770  0.88333  1.0000
  Cu  Cu268     1.0  0.01429  0.25230  0.95000  1.0000
  Cu  Cu269     1.0  0.08571  0.33103  0.86667  1.0000
  Cu  Cu270     1.0  0.05714  0.16897  0.96667  1.0000
  Cu  Cu271     1.0  0.05714  0.33103  0.88333  1.0000
  Cu  Cu272     1.0  0.08571  0.16897  0.95000  1.0000
  Cu  Cu273     1.0  0.04344  0.25115  0.93472  1.0000
  Cu  Cu274     1.0  0.09941  0.24885  0.89862  1.0000
  Cu  Cu275     1.0  0.09941  0.25115  0.98195  1.0000
  Cu  Cu276     1.0  0.04344  0.24885  0.85138  1.0000
  Cu  Cu277     1.0  0.11487  0.16782  0.93472  1.0000
  Cu  Cu278     1.0  0.02799  0.33218  0.89862  1.0000
  Cu  Cu279     1.0  0.02799  0.16782  0.98195  1.0000
  Cu  Cu280     1.0  0.11487  0.33218  0.85138  1.0000
  Cu  Cu281     1.0  0.00000  0.16667  0.83333  1.0000
  Cu  Cu282     1.0  0.00000  0.16667  0.91667  1.0000
  Cu  Cu283     1.0  0.07143  0.25000  0.83333  1.0000
  Cu  Cu284     1.0  0.07143  0.25000  0.91667  1.0000
  Cu  Cu285     1.0  0.00000  0.19445  0.87500  1.0000
  Cu  Cu286     1.0  0.00000  0.30555  0.95833  1.0000
  Cu  Cu287     1.0  0.07143  0.27778  0.87500  1.0000
  Cu  Cu288     1.0  0.07143  0.22222  0.95833  1.0000
  Cu  Cu289     1.0  0.01429  0.41437  0.03333  1.0000
  Cu  Cu290     1.0  0.12857  0.41897  0.13333  1.0000
  Cu  Cu291     1.0  0.12857  0.41437  0.05000  1.0000
  Cu  Cu292     1.0  0.01429  0.41897  0.11667  1.0000
  Cu  Cu293     1.0  0.08571  0.49770  0.03333  1.0000
  Cu  Cu294     1.0  0.05714  0.33563  0.13333  1.0000
  Cu  Cu295     1.0  0.05714  0.49770  0.05000  1.0000
  Cu  Cu296     1.0  0.08571  0.33563  0.11667  1.0000
  Cu  Cu297     1.0  0.04344  0.41782  0.10138  1.0000
  Cu  Cu298     1.0  0.09941  0.41552  0.06528  1.0000
  Cu  Cu299     1.0  0.09941  0.41782  0.14862  1.0000
  Cu  Cu300     1.0  0.04344  0.41552  0.01805  1.0000
  Cu  Cu301     1.0  0.11487  0.33448  0.10138  1.0000
  Cu  Cu302     1.0  0.02799  0.49885  0.06528  1.0000
  Cu  Cu303     1.0  0.02799  0.33448  0.14862  1.0000
  Cu  Cu304     1.0  0.11487  0.49885  0.01805  1.0000
  Cu  Cu305     1.0  0.00000  0.33333  0.00000  1.0000
  Cu  Cu306     1.0  0.00000  0.33333  0.08333  1.0000
  Cu  Cu307     1.0  0.07143  0.41667  0.00000  1.0000
  Cu  Cu308     1.0  0.07143  0.41667  0.08333  1.0000
  Cu  Cu309     1.0  0.00000  0.36112  0.04167  1.0000
  Cu  Cu310     1.0  0.00000  0.47222  0.12500  1.0000
  Cu  Cu311     1.0  0.07143  0.44445  0.04167  1.0000
  Cu  Cu312     1.0  0.07143  0.38888  0.12500  1.0000
  Cu  Cu313     1.0  0.01429  0.41437  0.20000  1.0000
  Cu  Cu314     1.0  0.12857  0.41897  0.30000  1.0000
  Cu  Cu315     1.0  0.12857  0.41437  0.21667  1.0000
  Cu  Cu316     1.0  0.01429  0.41897  0.28333  1.0000
  Cu  Cu317     1.0  0.08571  0.49770  0.20000  1.0000
  Cu  Cu318     1.0  0.05714  0.33563  0.30000  1.0000
  Cu  Cu319     1.0  0.05714  0.49770  0.21667  1.0000
  Cu  Cu320     1.0  0.08571  0.33563  0.28333  1.0000
  Cu  Cu321     1.0  0.04344  0.41782  0.26805  1.0000
  Cu  Cu322     1.0  0.09941  0.41552  0.23195  1.0000
  Cu  Cu323     1.0  0.09941  0.41782  0.31528  1.0000
  Cu  Cu324     1.0  0.04344  0.41552  0.18472  1.0000
  Cu  Cu325     1.0  0.11487  0.33448  0.26805  1.0000
  Cu  Cu326     1.0  0.02799  0.49885  0.23195  1.0000
  Cu  Cu327     1.0  0.02799  0.33448  0.31528  1.0000
  Cu  Cu328     1.0  0.11487  0.49885  0.18472  1.0000
  Cu  Cu329     1.0  0.00000  0.33333  0.16667  1.0000
  Cu  Cu330     1.0  0.00000  0.33333  0.25000  1.0000
  Cu  Cu331     1.0  0.07143  0.41667  0.16667  1.0000
  Cu  Cu332     1.0  0.07143  0.41667  0.25000  1.0000
  Cu  Cu333     1.0  0.00000  0.36112  0.20833  1.0000
  Cu  Cu334     1.0  0.00000  0.47222  0.29167  1.0000
  Cu  Cu335     1.0  0.07143  0.44445  0.20833  1.0000
  Cu  Cu336     1.0  0.07143  0.38888  0.29167  1.0000
  Cu  Cu337     1.0  0.01429  0.41437  0.36667  1.0000
  Cu  Cu338     1.0  0.12857  0.41897  0.46667  1.0000
  Cu  Cu339     1.0  0.12857  0.41437  0.38333  1.0000
  Cu  Cu340     1.0  0.01429  0.41897  0.45000  1.0000
  Cu  Cu341     1.0  0.08571  0.49770  0.36667  1.0000
  Cu  Cu342     1.0  0.05714  0.33563  0.46667  1.0000
  Cu  Cu343     1.0  0.05714  0.49770  0.38333  1.0000
  Cu  Cu344     1.0  0.08571  0.33563  0.45000  1.0000
  Cu  Cu345     1.0  0.04344  0.41782  0.43472  1.0000
  Cu  Cu346     1.0  0.09941  0.41552  0.39862  1.0000
  Cu  Cu347     1.0  0.09941  0.41782  0.48195  1.0000
  Cu  Cu348     1.0  0.04344  0.41552  0.35138  1.0000
  Cu  Cu349     1.0  0.11487  0.33448  0.43472  1.0000
  Cu  Cu350     1.0  0.02799  0.49885  0.39862  1.0000
  Cu  Cu351     1.0  0.02799  0.33448  0.48195  1.0000
  Cu  Cu352     1.0  0.11487  0.49885  0.35138  1.0000
  Cu  Cu353     1.0  0.00000  0.33333  0.33333  1.0000
  Cu  Cu354     1.0  0.00000  0.33333  0.41667  1.0000
  Cu  Cu355     1.0  0.07143  0.41667  0.33333  1.0000
  Cu  Cu356     1.0  0.07143  0.41667  0.41667  1.0000
  Cu  Cu357     1.0  0.00000  0.36112  0.37500  1.0000
  Cu  Cu358     1.0  0.00000  0.47222  0.45833  1.0000
  Cu  Cu359     1.0  0.07143  0.44445  0.37500  1.0000
  Cu  Cu360     1.0  0.07143  0.38888  0.45833  1.0000
  Cu  Cu361     1.0  0.01429  0.41437  0.53333  1.0000
  Cu  Cu362     1.0  0.12857  0.41897  0.63333  1.0000
  Cu  Cu363     1.0  0.12857  0.41437  0.55000  1.0000
  Cu  Cu364     1.0  0.01429  0.41897  0.61667  1.0000
  Cu  Cu365     1.0  0.08571  0.49770  0.53333  1.0000
  Cu  Cu366     1.0  0.05714  0.33563  0.63333  1.0000
  Cu  Cu367     1.0  0.05714  0.49770  0.55000  1.0000
  Cu  Cu368     1.0  0.08571  0.33563  0.61667  1.0000
  Cu  Cu369     1.0  0.04344  0.41782  0.60138  1.0000
  Cu  Cu370     1.0  0.09941  0.41552  0.56528  1.0000
  Cu  Cu371     1.0  0.09941  0.41782  0.64862  1.0000
  Cu  Cu372     1.0  0.04344  0.41552  0.51805  1.0000
  Cu  Cu373     1.0  0.11487  0.33448  0.60138  1.0000
  Cu  Cu374     1.0  0.02799  0.49885  0.56528  1.0000
  Cu  Cu375     1.0  0.02799  0.33448  0.64862  1.0000
  Cu  Cu376     1.0  0.11487  0.49885  0.51805  1.0000
  Cu  Cu377     1.0  0.00000  0.33333  0.50000  1.0000
  Cu  Cu378     1.0  0.00000  0.33333  0.58333  1.0000
  Cu  Cu379     1.0  0.07143  0.41667  0.50000  1.0000
  Cu  Cu380     1.0  0.07143  0.41667  0.58333  1.0000
  Cu  Cu381     1.0  0.00000  0.36112  0.54167  1.0000
  Cu  Cu382     1.0  0.00000  0.47222  0.62500  1.0000
  Cu  Cu383     1.0  0.07143  0.44445  0.54167  1.0000
  Cu  Cu384     1.0  0.07143  0.38888  0.62500  1.0000
  Cu  Cu385     1.0  0.01429  0.41437  0.70000  1.0000
  Cu  Cu386     1.0  0.12857  0.41897  0.80000  1.0000
  Cu  Cu387     1.0  0.12857  0.41437  0.71667  1.0000
  Cu  Cu388     1.0  0.01429  0.41897  0.78333  1.0000
  Cu  Cu389     1.0  0.08571  0.49770  0.70000  1.0000
  Cu  Cu390     1.0  0.05714  0.33563  0.80000  1.0000
  Cu  Cu391     1.0  0.05714  0.49770  0.71667  1.0000
  Cu  Cu392     1.0  0.08571  0.33563  0.78333  1.0000
  Cu  Cu393     1.0  0.04344  0.41782  0.76805  1.0000
  Cu  Cu394     1.0  0.09941  0.41552  0.73195  1.0000
  Cu  Cu395     1.0  0.09941  0.41782  0.81528  1.0000
  Cu  Cu396     1.0  0.04344  0.41552  0.68472  1.0000
  Cu  Cu397     1.0  0.11487  0.33448  0.76805  1.0000
  Cu  Cu398     1.0  0.02799  0.49885  0.73195  1.0000
  Cu  Cu399     1.0  0.02799  0.33448  0.81528  1.0000
  Cu  Cu400     1.0  0.11487  0.49885  0.68472  1.0000
  Cu  Cu401     1.0  0.00000  0.33333  0.66667  1.0000
  Cu  Cu402     1.0  0.00000  0.33333  0.75000  1.0000
  Cu  Cu403     1.0  0.07143  0.41667  0.66667  1.0000
  Cu  Cu404     1.0  0.07143  0.41667  0.75000  1.0000
  Cu  Cu405     1.0  0.00000  0.36112  0.70833  1.0000
  Cu  Cu406     1.0  0.00000  0.47222  0.79167  1.0000
  Cu  Cu407     1.0  0.07143  0.44445  0.70833  1.0000
  Cu  Cu408     1.0  0.07143  0.38888  0.79167  1.0000
  Cu  Cu409     1.0  0.01429  0.41437  0.86667  1.0000
  Cu  Cu410     1.0  0.12857  0.41897  0.96667  1.0000
  Cu  Cu411     1.0  0.12857  0.41437  0.88333  1.0000
  Cu  Cu412     1.0  0.01429  0.41897  0.95000  1.0000
  Cu  Cu413     1.0  0.08571  0.49770  0.86667  1.0000
  Cu  Cu414     1.0  0.05714  0.33563  0.96667  1.0000
  Cu  Cu415     1.0  0.05714  0.49770  0.88333  1.0000
  Cu  Cu416     1.0  0.08571  0.33563  0.95000  1.0000
  Cu  Cu417     1.0  0.04344  0.41782  0.93472  1.0000
  Cu  Cu418     1.0  0.09941  0.41552  0.89862  1.0000
  Cu  Cu419     1.0  0.09941  0.41782  0.98195  1.0000
  Cu  Cu420     1.0  0.04344  0.41552  0.85138  1.0000
  Cu  Cu421     1.0  0.11487  0.33448  0.93472  1.0000
  Cu  Cu422     1.0  0.02799  0.49885  0.89862  1.0000
  Cu  Cu423     1.0  0.02799  0.33448  0.98195  1.0000
  Cu  Cu424     1.0  0.11487  0.49885  0.85138  1.0000
  Cu  Cu425     1.0  0.00000  0.33333  0.83333  1.0000
  Cu  Cu426     1.0  0.00000  0.33333  0.91667  1.0000
  Cu  Cu427     1.0  0.07143  0.41667  0.83333  1.0000
  Cu  Cu428     1.0  0.07143  0.41667  0.91667  1.0000
  Cu  Cu429     1.0  0.00000  0.36112  0.87500  1.0000
  Cu  Cu430     1.0  0.00000  0.47222  0.95833  1.0000
  Cu  Cu431     1.0  0.07143  0.44445  0.87500  1.0000
  Cu  Cu432     1.0  0.07143  0.38888  0.95833  1.0000
  Cu  Cu433     1.0  0.01429  0.58103  0.03333  1.0000
  Cu  Cu434     1.0  0.12857  0.58563  0.13333  1.0000
  Cu  Cu435     1.0  0.12857  0.58103  0.05000  1.0000
  Cu  Cu436     1.0  0.01429  0.58563  0.11667  1.0000
  Cu  Cu437     1.0  0.08571  0.66437  0.03333  1.0000
  Cu  Cu438     1.0  0.05714  0.50230  0.13333  1.0000
  Cu  Cu439     1.0  0.05714  0.66437  0.05000  1.0000
  Cu  Cu440     1.0  0.08571  0.50230  0.11667  1.0000
  Cu  Cu441     1.0  0.04344  0.58448  0.10138  1.0000
  Cu  Cu442     1.0  0.09941  0.58218  0.06528  1.0000
  Cu  Cu443     1.0  0.09941  0.58448  0.14862  1.0000
  Cu  Cu444     1.0  0.04344  0.58218  0.01805  1.0000
  Cu  Cu445     1.0  0.11487  0.50115  0.10138  1.0000
  Cu  Cu446     1.0  0.02799  0.66552  0.06528  1.0000
  Cu  Cu447     1.0  0.02799  0.50115  0.14862  1.0000
  Cu  Cu448     1.0  0.11487  0.66552  0.01805  1.0000
  Cu  Cu449     1.0  0.00000  0.50000  0.00000  1.0000
  Cu  Cu450     1.0  0.00000  0.50000  0.08333  1.0000
  Cu  Cu451     1.0  0.07143  0.58333  0.00000  1.0000
  Cu  Cu452     1.0  0.07143  0.58333  0.08333  1.0000
  Cu  Cu453     1.0  0.00000  0.52778  0.04167  1.0000
  Cu  Cu454     1.0  0.00000  0.63888  0.12500  1.0000
  Cu  Cu455     1.0  0.07143  0.61112  0.04167  1.0000
  Cu  Cu456     1.0  0.07143  0.55555  0.12500  1.0000
  Cu  Cu457     1.0  0.01429  0.58103  0.20000  1.0000
  Cu  Cu458     1.0  0.12857  0.58563  0.30000  1.0000
  Cu  Cu459     1.0  0.12857  0.58103  0.21667  1.0000
  Cu  Cu460     1.0  0.01429  0.58563  0.28333  1.0000
  Cu  Cu461     1.0  0.08571  0.66437  0.20000  1.0000
  Cu  Cu462     1.0  0.05714  0.50230  0.30000  1.0000
  Cu  Cu463     1.0  0.05714  0.66437  0.21667  1.0000
  Cu  Cu464     1.0  0.08571  0.50230  0.28333  1.0000
  Cu  Cu465     1.0  0.04344  0.58448  0.26805  1.0000
  Cu  Cu466     1.0  0.09941  0.58218  0.23195  1.0000
  Cu  Cu467     1.0  0.09941  0.58448  0.31528  1.0000
  Cu  Cu468     1.0  0.04344  0.58218  0.18472  1.0000
  Cu  Cu469     1.0  0.11487  0.50115  0.26805  1.0000
  Cu  Cu470     1.0  0.02799  0.66552  0.23195  1.0000
  Cu  Cu471     1.0  0.02799  0.50115  0.31528  1.0000
  Cu  Cu472     1.0  0.11487  0.66552  0.18472  1.0000
  Cu  Cu473     1.0  0.00000  0.50000  0.16667  1.0000
  Cu  Cu474     1.0  0.00000  0.50000  0.25000  1.0000
  Cu  Cu475     1.0  0.07143  0.58333  0.16667  1.0000
  Cu  Cu476     1.0  0.07143  0.58333  0.25000  1.0000
  Cu  Cu477     1.0  0.00000  0.52778  0.20833  1.0000
  Cu  Cu478     1.0  0.00000  0.63888  0.29167  1.0000
  Cu  Cu479     1.0  0.07143  0.61112  0.20833  1.0000
  Cu  Cu480     1.0  0.07143  0.55555  0.29167  1.0000
  Cu  Cu481     1.0  0.01429  0.58103  0.36667  1.0000
  Cu  Cu482     1.0  0.12857  0.58563  0.46667  1.0000
  Cu  Cu483     1.0  0.12857  0.58103  0.38333  1.0000
  Cu  Cu484     1.0  0.01429  0.58563  0.45000  1.0000
  Cu  Cu485     1.0  0.08571  0.66437  0.36667  1.0000
  Cu  Cu486     1.0  0.05714  0.50230  0.46667  1.0000
  Cu  Cu487     1.0  0.05714  0.66437  0.38333  1.0000
  Cu  Cu488     1.0  0.08571  0.50230  0.45000  1.0000
  Cu  Cu489     1.0  0.04344  0.58448  0.43472  1.0000
  Cu  Cu490     1.0  0.09941  0.58218  0.39862  1.0000
  Cu  Cu491     1.0  0.09941  0.58448  0.48195  1.0000
  Cu  Cu492     1.0  0.04344  0.58218  0.35138  1.0000
  Cu  Cu493     1.0  0.11487  0.50115  0.43472  1.0000
  Cu  Cu494     1.0  0.02799  0.66552  0.39862  1.0000
  Cu  Cu495     1.0  0.02799  0.50115  0.48195  1.0000
  Cu  Cu496     1.0  0.11487  0.66552  0.35138  1.0000
  Cu  Cu497     1.0  0.00000  0.50000  0.33333  1.0000
  Cu  Cu498     1.0  0.00000  0.50000  0.41667  1.0000
  Cu  Cu499     1.0  0.07143  0.58333  0.33333  1.0000
  Cu  Cu500     1.0  0.07143  0.58333  0.41667  1.0000
  Cu  Cu501     1.0  0.00000  0.52778  0.37500  1.0000
  Cu  Cu502     1.0  0.00000  0.63888  0.45833  1.0000
  Cu  Cu503     1.0  0.07143  0.61112  0.37500  1.0000
  Cu  Cu504     1.0  0.07143  0.55555  0.45833  1.0000
  Cu  Cu505     1.0  0.01429  0.58103  0.53333  1.0000
  Cu  Cu506     1.0  0.12857  0.58563  0.63333  1.0000
  Cu  Cu507     1.0  0.12857  0.58103  0.55000  1.0000
  Cu  Cu508     1.0  0.01429  0.58563  0.61667  1.0000
  Cu  Cu509     1.0  0.08571  0.66437  0.53333  1.0000
  Cu  Cu510     1.0  0.05714  0.50230  0.63333  1.0000
  Cu  Cu511     1.0  0.05714  0.66437  0.55000  1.0000
  Cu  Cu512     1.0  0.08571  0.50230  0.61667  1.0000
  Cu  Cu513     1.0  0.04344  0.58448  0.60138  1.0000
  Cu  Cu514     1.0  0.09941  0.58218  0.56528  1.0000
  Cu  Cu515     1.0  0.09941  0.58448  0.64862  1.0000
  Cu  Cu516     1.0  0.04344  0.58218  0.51805  1.0000
  Cu  Cu517     1.0  0.11487  0.50115  0.60138  1.0000
  Cu  Cu518     1.0  0.02799  0.66552  0.56528  1.0000
  Cu  Cu519     1.0  0.02799  0.50115  0.64862  1.0000
  Cu  Cu520     1.0  0.11487  0.66552  0.51805  1.0000
  Cu  Cu521     1.0  0.00000  0.50000  0.50000  1.0000
  Cu  Cu522     1.0  0.00000  0.50000  0.58333  1.0000
  Cu  Cu523     1.0  0.07143  0.58333  0.50000  1.0000
  Cu  Cu524     1.0  0.07143  0.58333  0.58333  1.0000
  Cu  Cu525     1.0  0.00000  0.52778  0.54167  1.0000
  Cu  Cu526     1.0  0.00000  0.63888  0.62500  1.0000
  Cu  Cu527     1.0  0.07143  0.61112  0.54167  1.0000
  Cu  Cu528     1.0  0.07143  0.55555  0.62500  1.0000
  Cu  Cu529     1.0  0.01429  0.58103  0.70000  1.0000
  Cu  Cu530     1.0  0.12857  0.58563  0.80000  1.0000
  Cu  Cu531     1.0  0.12857  0.58103  0.71667  1.0000
  Cu  Cu532     1.0  0.01429  0.58563  0.78333  1.0000
  Cu  Cu533     1.0  0.08571  0.66437  0.70000  1.0000
  Cu  Cu534     1.0  0.05714  0.50230  0.80000  1.0000
  Cu  Cu535     1.0  0.05714  0.66437  0.71667  1.0000
  Cu  Cu536     1.0  0.08571  0.50230  0.78333  1.0000
  Cu  Cu537     1.0  0.04344  0.58448  0.76805  1.0000
  Cu  Cu538     1.0  0.09941  0.58218  0.73195  1.0000
  Cu  Cu539     1.0  0.09941  0.58448  0.81528  1.0000
  Cu  Cu540     1.0  0.04344  0.58218  0.68472  1.0000
  Cu  Cu541     1.0  0.11487  0.50115  0.76805  1.0000
  Cu  Cu542     1.0  0.02799  0.66552  0.73195  1.0000
  Cu  Cu543     1.0  0.02799  0.50115  0.81528  1.0000
  Cu  Cu544     1.0  0.11487  0.66552  0.68472  1.0000
  Cu  Cu545     1.0  0.00000  0.50000  0.66667  1.0000
  Cu  Cu546     1.0  0.00000  0.50000  0.75000  1.0000
  Cu  Cu547     1.0  0.07143  0.58333  0.66667  1.0000
  Cu  Cu548     1.0  0.07143  0.58333  0.75000  1.0000
  Cu  Cu549     1.0  0.00000  0.52778  0.70833  1.0000
  Cu  Cu550     1.0  0.00000  0.63888  0.79167  1.0000
  Cu  Cu551     1.0  0.07143  0.61112  0.70833  1.0000
  Cu  Cu552     1.0  0.07143  0.55555  0.79167  1.0000
  Cu  Cu553     1.0  0.01429  0.58103  0.86667  1.0000
  Cu  Cu554     1.0  0.12857  0.58563  0.96667  1.0000
  Cu  Cu555     1.0  0.12857  0.58103  0.88333  1.0000
  Cu  Cu556     1.0  0.01429  0.58563  0.95000  1.0000
  Cu  Cu557     1.0  0.08571  0.66437  0.86667  1.0000
  Cu  Cu558     1.0  0.05714  0.50230  0.96667  1.0000
  Cu  Cu559     1.0  0.05714  0.66437  0.88333  1.0000
  Cu  Cu560     1.0  0.08571  0.50230  0.95000  1.0000
  Cu  Cu561     1.0  0.04344  0.58448  0.93472  1.0000
  Cu  Cu562     1.0  0.09941  0.58218  0.89862  1.0000
  Cu  Cu563     1.0  0.09941  0.58448  0.98195  1.0000
  Cu  Cu564     1.0  0.04344  0.58218  0.85138  1.0000
  Cu  Cu565     1.0  0.11487  0.50115  0.93472  1.0000
  Cu  Cu566     1.0  0.02799  0.66552  0.89862  1.0000
  Cu  Cu567     1.0  0.02799  0.50115  0.98195  1.0000
  Cu  Cu568     1.0  0.11487  0.66552  0.85138  1.0000
  Cu  Cu569     1.0  0.00000  0.50000  0.83333  1.0000
  Cu  Cu570     1.0  0.00000  0.50000  0.91667  1.0000
  Cu  Cu571     1.0  0.07143  0.58333  0.83333  1.0000
  Cu  Cu572     1.0  0.07143  0.58333  0.91667  1.0000
  Cu  Cu573     1.0  0.00000  0.52778  0.87500  1.0000
  Cu  Cu574     1.0  0.00000  0.63888  0.95833  1.0000
  Cu  Cu575     1.0  0.07143  0.61112  0.87500  1.0000
  Cu  Cu576     1.0  0.07143  0.55555  0.95833  1.0000
  Cu  Cu577     1.0  0.01429  0.74770  0.03333  1.0000
  Cu  Cu578     1.0  0.12857  0.75230  0.13333  1.0000
  Cu  Cu579     1.0  0.12857  0.74770  0.05000  1.0000
  Cu  Cu580     1.0  0.01429  0.75230  0.11667  1.0000
  Cu  Cu581     1.0  0.08571  0.83103  0.03333  1.0000
  Cu  Cu582     1.0  0.05714  0.66897  0.13333  1.0000
  Cu  Cu583     1.0  0.05714  0.83103  0.05000  1.0000
  Cu  Cu584     1.0  0.08571  0.66897  0.11667  1.0000
  Cu  Cu585     1.0  0.04344  0.75115  0.10138  1.0000
  Cu  Cu586     1.0  0.09941  0.74885  0.06528  1.0000
  Cu  Cu587     1.0  0.09941  0.75115  0.14862  1.0000
  Cu  Cu588     1.0  0.04344  0.74885  0.01805  1.0000
  Cu  Cu589     1.0  0.11487  0.66782  0.10138  1.0000
  Cu  Cu590     1.0  0.02799  0.83218  0.06528  1.0000
  Cu  Cu591     1.0  0.02799  0.66782  0.14862  1.0000
  Cu  Cu592     1.0  0.11487  0.83218  0.01805  1.0000
  Cu  Cu593     1.0  0.00000  0.66667  0.00000  1.0000
  Cu  Cu594     1.0  0.00000  0.66667  0.08333  1.0000
  Cu  Cu595     1.0  0.07143  0.75000  0.00000  1.0000
  Cu  Cu596     1.0  0.07143  0.75000  0.08333  1.0000
  Cu  Cu597     1.0  0.00000  0.69445  0.04167  1.0000
  Cu  Cu598     1.0  0.00000  0.80555  0.12500  1.0000
  Cu  Cu599     1.0  0.07143  0.77778  0.04167  1.0000
  Cu  Cu600     1.0  0.07143  0.72222  0.12500  1.0000
  Cu  Cu601     1.0  0.01429  0.74770  0.20000  1.0000
  Cu  Cu602     1.0  0.12857  0.75230  0.30000  1.0000
  Cu  Cu603     1.0  0.12857  0.74770  0.21667  1.0000
  Cu  Cu604     1.0  0.01429  0.75230  0.28333  1.0000
  Cu  Cu605     1.0  0.08571  0.83103  0.20000  1.0000
  Cu  Cu606     1.0  0.05714  0.66897  0.30000  1.0000
  Cu  Cu607     1.0  0.05714  0.83103  0.21667  1.0000
  Cu  Cu608     1.0  0.08571  0.66897  0.28333  1.0000
  Cu  Cu609     1.0  0.04344  0.75115  0.26805  1.0000
  Cu  Cu610     1.0  0.09941  0.74885  0.23195  1.0000
  Cu  Cu611     1.0  0.09941  0.75115  0.31528  1.0000
  Cu  Cu612     1.0  0.04344  0.74885  0.18472  1.0000
  Cu  Cu613     1.0  0.11487  0.66782  0.26805  1.0000
  Cu  Cu614     1.0  0.02799  0.83218  0.23195  1.0000
  Cu  Cu615     1.0  0.02799  0.66782  0.31528  1.0000
  Cu  Cu616     1.0  0.11487  0.83218  0.18472  1.0000
  Cu  Cu617     1.0  0.00000  0.66667  0.16667  1.0000
  Cu  Cu618     1.0  0.00000  0.66667  0.25000  1.0000
  Cu  Cu619     1.0  0.07143  0.75000  0.16667  1.0000
  Cu  Cu620     1.0  0.07143  0.75000  0.25000  1.0000
  Cu  Cu621     1.0  0.00000  0.69445  0.20833  1.0000
  Cu  Cu622     1.0  0.00000  0.80555  0.29167  1.0000
  Cu  Cu623     1.0  0.07143  0.77778  0.20833  1.0000
  Cu  Cu624     1.0  0.07143  0.72222  0.29167  1.0000
  Cu  Cu625     1.0  0.01429  0.74770  0.36667  1.0000
  Cu  Cu626     1.0  0.12857  0.75230  0.46667  1.0000
  Cu  Cu627     1.0  0.12857  0.74770  0.38333  1.0000
  Cu  Cu628     1.0  0.01429  0.75230  0.45000  1.0000
  Cu  Cu629     1.0  0.08571  0.83103  0.36667  1.0000
  Cu  Cu630     1.0  0.05714  0.66897  0.46667  1.0000
  Cu  Cu631     1.0  0.05714  0.83103  0.38333  1.0000
  Cu  Cu632     1.0  0.08571  0.66897  0.45000  1.0000
  Cu  Cu633     1.0  0.04344  0.75115  0.43472  1.0000
  Cu  Cu634     1.0  0.09941  0.74885  0.39862  1.0000
  Cu  Cu635     1.0  0.09941  0.75115  0.48195  1.0000
  Cu  Cu636     1.0  0.04344  0.74885  0.35138  1.0000
  Cu  Cu637     1.0  0.11487  0.66782  0.43472  1.0000
  Cu  Cu638     1.0  0.02799  0.83218  0.39862  1.0000
  Cu  Cu639     1.0  0.02799  0.66782  0.48195  1.0000
  Cu  Cu640     1.0  0.11487  0.83218  0.35138  1.0000
  Cu  Cu641     1.0  0.00000  0.66667  0.33333  1.0000
  Cu  Cu642     1.0  0.00000  0.66667  0.41667  1.0000
  Cu  Cu643     1.0  0.07143  0.75000  0.33333  1.0000
  Cu  Cu644     1.0  0.07143  0.75000  0.41667  1.0000
  Cu  Cu645     1.0  0.00000  0.69445  0.37500  1.0000
  Cu  Cu646     1.0  0.00000  0.80555  0.45833  1.0000
  Cu  Cu647     1.0  0.07143  0.77778  0.37500  1.0000
  Cu  Cu648     1.0  0.07143  0.72222  0.45833  1.0000
  Cu  Cu649     1.0  0.01429  0.74770  0.53333  1.0000
  Cu  Cu650     1.0  0.12857  0.75230  0.63333  1.0000
  Cu  Cu651     1.0  0.12857  0.74770  0.55000  1.0000
  Cu  Cu652     1.0  0.01429  0.75230  0.61667  1.0000
  Cu  Cu653     1.0  0.08571  0.83103  0.53333  1.0000
  Cu  Cu654     1.0  0.05714  0.66897  0.63333  1.0000
  Cu  Cu655     1.0  0.05714  0.83103  0.55000  1.0000
  Cu  Cu656     1.0  0.08571  0.66897  0.61667  1.0000
  Cu  Cu657     1.0  0.04344  0.75115  0.60138  1.0000
  Cu  Cu658     1.0  0.09941  0.74885  0.56528  1.0000
  Cu  Cu659     1.0  0.09941  0.75115  0.64862  1.0000
  Cu  Cu660     1.0  0.04344  0.74885  0.51805  1.0000
  Cu  Cu661     1.0  0.11487  0.66782  0.60138  1.0000
  Cu  Cu662     1.0  0.02799  0.83218  0.56528  1.0000
  Cu  Cu663     1.0  0.02799  0.66782  0.64862  1.0000
  Cu  Cu664     1.0  0.11487  0.83218  0.51805  1.0000
  Cu  Cu665     1.0  0.00000  0.66667  0.50000  1.0000
  Cu  Cu666     1.0  0.00000  0.66667  0.58333  1.0000
  Cu  Cu667     1.0  0.07143  0.75000  0.50000  1.0000
  Cu  Cu668     1.0  0.07143  0.75000  0.58333  1.0000
  Cu  Cu669     1.0  0.00000  0.69445  0.54167  1.0000
  Cu  Cu670     1.0  0.00000  0.80555  0.62500  1.0000
  Cu  Cu671     1.0  0.07143  0.77778  0.54167  1.0000
  Cu  Cu672     1.0  0.07143  0.72222  0.62500  1.0000
  Cu  Cu673     1.0  0.01429  0.74770  0.70000  1.0000
  Cu  Cu674     1.0  0.12857  0.75230  0.80000  1.0000
  Cu  Cu675     1.0  0.12857  0.74770  0.71667  1.0000
  Cu  Cu676     1.0  0.01429  0.75230  0.78333  1.0000
  Cu  Cu677     1.0  0.08571  0.83103  0.70000  1.0000
  Cu  Cu678     1.0  0.05714  0.66897  0.80000  1.0000
  Cu  Cu679     1.0  0.05714  0.83103  0.71667  1.0000
  Cu  Cu680     1.0  0.08571  0.66897  0.78333  1.0000
  Cu  Cu681     1.0  0.04344  0.75115  0.76805  1.0000
  Cu  Cu682     1.0  0.09941  0.74885  0.73195  1.0000
  Cu  Cu683     1.0  0.09941  0.75115  0.81528  1.0000
  Cu  Cu684     1.0  0.04344  0.74885  0.68472  1.0000
  Cu  Cu685     1.0  0.11487  0.66782  0.76805  1.0000
  Cu  Cu686     1.0  0.02799  0.83218  0.73195  1.0000
  Cu  Cu687     1.0  0.02799  0.66782  0.81528  1.0000
  Cu  Cu688     1.0  0.11487  0.83218  0.68472  1.0000
  Cu  Cu689     1.0  0.00000  0.66667  0.66667  1.0000
  Cu  Cu690     1.0  0.00000  0.66667  0.75000  1.0000
  Cu  Cu691     1.0  0.07143  0.75000  0.66667  1.0000
  Cu  Cu692     1.0  0.07143  0.75000  0.75000  1.0000
  Cu  Cu693     1.0  0.00000  0.69445  0.70833  1.0000
  Cu  Cu694     1.0  0.00000  0.80555  0.79167  1.0000
  Cu  Cu695     1.0  0.07143  0.77778  0.70833  1.0000
  Cu  Cu696     1.0  0.07143  0.72222  0.79167  1.0000
  Cu  Cu697     1.0  0.01429  0.74770  0.86667  1.0000
  Cu  Cu698     1.0  0.12857  0.75230  0.96667  1.0000
  Cu  Cu699     1.0  0.12857  0.74770  0.88333  1.0000
  Cu  Cu700     1.0  0.01429  0.75230  0.95000  1.0000
  Cu  Cu701     1.0  0.08571  0.83103  0.86667  1.0000
  Cu  Cu702     1.0  0.05714  0.66897  0.96667  1.0000
  Cu  Cu703     1.0  0.05714  0.83103  0.88333  1.0000
  Cu  Cu704     1.0  0.08571  0.66897  0.95000  1.0000
  Cu  Cu705     1.0  0.04344  0.75115  0.93472  1.0000
  Cu  Cu706     1.0  0.09941  0.74885  0.89862  1.0000
  Cu  Cu707     1.0  0.09941  0.75115  0.98195  1.0000
  Cu  Cu708     1.0  0.04344  0.74885  0.85138  1.0000
  Cu  Cu709     1.0  0.11487  0.66782  0.93472  1.0000
  Cu  Cu710     1.0  0.02799  0.83218  0.89862  1.0000
  Cu  Cu711     1.0  0.02799  0.66782  0.98195  1.0000
  Cu  Cu712     1.0  0.11487  0.83218  0.85138  1.0000
  Cu  Cu713     1.0  0.00000  0.66667  0.83333  1.0000
  Cu  Cu714     1.0  0.00000  0.66667  0.91667  1.0000
  Cu  Cu715     1.0  0.07143  0.75000  0.83333  1.0000
  Cu  Cu716     1.0  0.07143  0.75000  0.91667  1.0000
  Cu  Cu717     1.0  0.00000  0.69445  0.87500  1.0000
  Cu  Cu718     1.0  0.00000  0.80555  0.95833  1.0000
  Cu  Cu719     1.0  0.07143  0.77778  0.87500  1.0000
  Cu  Cu720     1.0  0.07143  0.72222  0.95833  1.0000
  Cu  Cu721     1.0  0.01429  0.91437  0.03333  1.0000
  Cu  Cu722     1.0  0.12857  0.91897  0.13333  1.0000
  Cu  Cu723     1.0  0.12857  0.91437  0.05000  1.0000
  Cu  Cu724     1.0  0.01429  0.91897  0.11667  1.0000
  Cu  Cu725     1.0  0.08571  0.99770  0.03333  1.0000
  Cu  Cu726     1.0  0.05714  0.83563  0.13333  1.0000
  Cu  Cu727     1.0  0.05714  0.99770  0.05000  1.0000
  Cu  Cu728     1.0  0.08571  0.83563  0.11667  1.0000
  Cu  Cu729     1.0  0.04344  0.91782  0.10138  1.0000
  Cu  Cu730     1.0  0.09941  0.91552  0.06528  1.0000
  Cu  Cu731     1.0  0.09941  0.91782  0.14862  1.0000
  Cu  Cu732     1.0  0.04344  0.91552  0.01805  1.0000
  Cu  Cu733     1.0  0.11487  0.83448  0.10138  1.0000
  Cu  Cu734     1.0  0.02799  0.99885  0.06528  1.0000
  Cu  Cu735     1.0  0.02799  0.83448  0.14862  1.0000
  Cu  Cu736     1.0  0.11487  0.99885  0.01805  1.0000
  Cu  Cu737     1.0  0.00000  0.83333  0.00000  1.0000
  Cu  Cu738     1.0  0.00000  0.83333  0.08333  1.0000
  Cu  Cu739     1.0  0.07143  0.91667  0.00000  1.0000
  Cu  Cu740     1.0  0.07143  0.91667  0.08333  1.0000
  Cu  Cu741     1.0  0.00000  0.86112  0.04167  1.0000
  Cu  Cu742     1.0  0.00000  0.97222  0.12500  1.0000
  Cu  Cu743     1.0  0.07143  0.94445  0.04167  1.0000
  Cu  Cu744     1.0  0.07143  0.88888  0.12500  1.0000
  Cu  Cu745     1.0  0.01429  0.91437  0.20000  1.0000
  Cu  Cu746     1.0  0.12857  0.91897  0.30000  1.0000
  Cu  Cu747     1.0  0.12857  0.91437  0.21667  1.0000
  Cu  Cu748     1.0  0.01429  0.91897  0.28333  1.0000
  Cu  Cu749     1.0  0.08571  0.99770  0.20000  1.0000
  Cu  Cu750     1.0  0.05714  0.83563  0.30000  1.0000
  Cu  Cu751     1.0  0.05714  0.99770  0.21667  1.0000
  Cu  Cu752     1.0  0.08571  0.83563  0.28333  1.0000
  Cu  Cu753     1.0  0.04344  0.91782  0.26805  1.0000
  Cu  Cu754     1.0  0.09941  0.91552  0.23195  1.0000
  Cu  Cu755     1.0  0.09941  0.91782  0.31528  1.0000
  Cu  Cu756     1.0  0.04344  0.91552  0.18472  1.0000
  Cu  Cu757     1.0  0.11487  0.83448  0.26805  1.0000
  Cu  Cu758     1.0  0.02799  0.99885  0.23195  1.0000
  Cu  Cu759     1.0  0.02799  0.83448  0.31528  1.0000
  Cu  Cu760     1.0  0.11487  0.99885  0.18472  1.0000
  Cu  Cu761     1.0  0.00000  0.83333  0.16667  1.0000
  Cu  Cu762     1.0  0.00000  0.83333  0.25000  1.0000
  Cu  Cu763     1.0  0.07143  0.91667  0.16667  1.0000
  Cu  Cu764     1.0  0.07143  0.91667  0.25000  1.0000
  Cu  Cu765     1.0  0.00000  0.86112  0.20833  1.0000
  Cu  Cu766     1.0  0.00000  0.97222  0.29167  1.0000
  Cu  Cu767     1.0  0.07143  0.94445  0.20833  1.0000
  Cu  Cu768     1.0  0.07143  0.88888  0.29167  1.0000
  Cu  Cu769     1.0  0.01429  0.91437  0.36667  1.0000
  Cu  Cu770     1.0  0.12857  0.91897  0.46667  1.0000
  Cu  Cu771     1.0  0.12857  0.91437  0.38333  1.0000
  Cu  Cu772     1.0  0.01429  0.91897  0.45000  1.0000
  Cu  Cu773     1.0  0.08571  0.99770  0.36667  1.0000
  Cu  Cu774     1.0  0.05714  0.83563  0.46667  1.0000
  Cu  Cu775     1.0  0.05714  0.99770  0.38333  1.0000
  Cu  Cu776     1.0  0.08571  0.83563  0.45000  1.0000
  Cu  Cu777     1.0  0.04344  0.91782  0.43472  1.0000
  Cu  Cu778     1.0  0.09941  0.91552  0.39862  1.0000
  Cu  Cu779     1.0  0.09941  0.91782  0.48195  1.0000
  Cu  Cu780     1.0  0.04344  0.91552  0.35138  1.0000
  Cu  Cu781     1.0  0.11487  0.83448  0.43472  1.0000
  Cu  Cu782     1.0  0.02799  0.99885  0.39862  1.0000
  Cu  Cu783     1.0  0.02799  0.83448  0.48195  1.0000
  Cu  Cu784     1.0  0.11487  0.99885  0.35138  1.0000
  Cu  Cu785     1.0  0.00000  0.83333  0.33333  1.0000
  Cu  Cu786     1.0  0.00000  0.83333  0.41667  1.0000
  Cu  Cu787     1.0  0.07143  0.91667  0.33333  1.0000
  Cu  Cu788     1.0  0.07143  0.91667  0.41667  1.0000
  Cu  Cu789     1.0  0.00000  0.86112  0.37500  1.0000
  Cu  Cu790     1.0  0.00000  0.97222  0.45833  1.0000
  Cu  Cu791     1.0  0.07143  0.94445  0.37500  1.0000
  Cu  Cu792     1.0  0.07143  0.88888  0.45833  1.0000
  Cu  Cu793     1.0  0.01429  0.91437  0.53333  1.0000
  Cu  Cu794     1.0  0.12857  0.91897  0.63333  1.0000
  Cu  Cu795     1.0  0.12857  0.91437  0.55000  1.0000
  Cu  Cu796     1.0  0.01429  0.91897  0.61667  1.0000
  Cu  Cu797     1.0  0.08571  0.99770  0.53333  1.0000
  Cu  Cu798     1.0  0.05714  0.83563  0.63333  1.0000
  Cu  Cu799     1.0  0.05714  0.99770  0.55000  1.0000
  Cu  Cu800     1.0  0.08571  0.83563  0.61667  1.0000
  Cu  Cu801     1.0  0.04344  0.91782  0.60138  1.0000
  Cu  Cu802     1.0  0.09941  0.91552  0.56528  1.0000
  Cu  Cu803     1.0  0.09941  0.91782  0.64862  1.0000
  Cu  Cu804     1.0  0.04344  0.91552  0.51805  1.0000
  Cu  Cu805     1.0  0.11487  0.83448  0.60138  1.0000
  Cu  Cu806     1.0  0.02799  0.99885  0.56528  1.0000
  Cu  Cu807     1.0  0.02799  0.83448  0.64862  1.0000
  Cu  Cu808     1.0  0.11487  0.99885  0.51805  1.0000
  Cu  Cu809     1.0  0.00000  0.83333  0.50000  1.0000
  Cu  Cu810     1.0  0.00000  0.83333  0.58333  1.0000
  Cu  Cu811     1.0  0.07143  0.91667  0.50000  1.0000
  Cu  Cu812     1.0  0.07143  0.91667  0.58333  1.0000
  Cu  Cu813     1.0  0.00000  0.86112  0.54167  1.0000
  Cu  Cu814     1.0  0.00000  0.97222  0.62500  1.0000
  Cu  Cu815     1.0  0.07143  0.94445  0.54167  1.0000
  Cu  Cu816     1.0  0.07143  0.88888  0.62500  1.0000
  Cu  Cu817     1.0  0.01429  0.91437  0.70000  1.0000
  Cu  Cu818     1.0  0.12857  0.91897  0.80000  1.0000
  Cu  Cu819     1.0  0.12857  0.91437  0.71667  1.0000
  Cu  Cu820     1.0  0.01429  0.91897  0.78333  1.0000
  Cu  Cu821     1.0  0.08571  0.99770  0.70000  1.0000
  Cu  Cu822     1.0  0.05714  0.83563  0.80000  1.0000
  Cu  Cu823     1.0  0.05714  0.99770  0.71667  1.0000
  Cu  Cu824     1.0  0.08571  0.83563  0.78333  1.0000
  Cu  Cu825     1.0  0.04344  0.91782  0.76805  1.0000
  Cu  Cu826     1.0  0.09941  0.91552  0.73195  1.0000
  Cu  Cu827     1.0  0.09941  0.91782  0.81528  1.0000
  Cu  Cu828     1.0  0.04344  0.91552  0.68472  1.0000
  Cu  Cu829     1.0  0.11487  0.83448  0.76805  1.0000
  Cu  Cu830     1.0  0.02799  0.99885  0.73195  1.0000
  Cu  Cu831     1.0  0.02799  0.83448  0.81528  1.0000
  Cu  Cu832     1.0  0.11487  0.99885  0.68472  1.0000
  Cu  Cu833     1.0  0.00000  0.83333  0.66667  1.0000
  Cu  Cu834     1.0  0.00000  0.83333  0.75000  1.0000
  Cu  Cu835     1.0  0.07143  0.91667  0.66667  1.0000
  Cu  Cu836     1.0  0.07143  0.91667  0.75000  1.0000
  Cu  Cu837     1.0  0.00000  0.86112  0.70833  1.0000
  Cu  Cu838     1.0  0.00000  0.97222  0.79167  1.0000
  Cu  Cu839     1.0  0.07143  0.94445  0.70833  1.0000
  Cu  Cu840     1.0  0.07143  0.88888  0.79167  1.0000
  Cu  Cu841     1.0  0.01429  0.91437  0.86667  1.0000
  Cu  Cu842     1.0  0.12857  0.91897  0.96667  1.0000
  Cu  Cu843     1.0  0.12857  0.91437  0.88333  1.0000
  Cu  Cu844     1.0  0.01429  0.91897  0.95000  1.0000
  Cu  Cu845     1.0  0.08571  0.99770  0.86667  1.0000
  Cu  Cu846     1.0  0.05714  0.83563  0.96667  1.0000
  Cu  Cu847     1.0  0.05714  0.99770  0.88333  1.0000
  Cu  Cu848     1.0  0.08571  0.83563  0.95000  1.0000
  Cu  Cu849     1.0  0.04344  0.91782  0.93472  1.0000
  Cu  Cu850     1.0  0.09941  0.91552  0.89862  1.0000
  Cu  Cu851     1.0  0.09941  0.91782  0.98195  1.0000
  Cu  Cu852     1.0  0.04344  0.91552  0.85138  1.0000
  Cu  Cu853     1.0  0.11487  0.83448  0.93472  1.0000
  Cu  Cu854     1.0  0.02799  0.99885  0.89862  1.0000
  Cu  Cu855     1.0  0.02799  0.83448  0.98195  1.0000
  Cu  Cu856     1.0  0.11487  0.99885  0.85138  1.0000
  Cu  Cu857     1.0  0.00000  0.83333  0.83333  1.0000
  Cu  Cu858     1.0  0.00000  0.83333  0.91667  1.0000
  Cu  Cu859     1.0  0.07143  0.91667  0.83333  1.0000
  Cu  Cu860     1.0  0.07143  0.91667  0.91667  1.0000
  Cu  Cu861     1.0  0.00000  0.86112  0.87500  1.0000
  Cu  Cu862     1.0  0.00000  0.97222  0.95833  1.0000
  Cu  Cu863     1.0  0.07143  0.94445  0.87500  1.0000
  Cu  Cu864     1.0  0.07143  0.88888  0.95833  1.0000
  Cu  Cu865     1.0  0.15714  0.08103  0.03333  1.0000
  Cu  Cu866     1.0  0.27143  0.08563  0.13333  1.0000
  Cu  Cu867     1.0  0.27143  0.08103  0.05000  1.0000
  Cu  Cu868     1.0  0.15714  0.08563  0.11667  1.0000
  Cu  Cu869     1.0  0.22857  0.16437  0.03333  1.0000
  Cu  Cu870     1.0  0.20000  0.00230  0.13333  1.0000
  Cu  Cu871     1.0  0.20000  0.16437  0.05000  1.0000
  Cu  Cu872     1.0  0.22857  0.00230  0.11667  1.0000
  Cu  Cu873     1.0  0.18630  0.08448  0.10138  1.0000
  Cu  Cu874     1.0  0.24227  0.08218  0.06528  1.0000
  Cu  Cu875     1.0  0.24227  0.08448  0.14862  1.0000
  Cu  Cu876     1.0  0.18630  0.08218  0.01805  1.0000
  Cu  Cu877     1.0  0.25773  0.00115  0.10138  1.0000
  Cu  Cu878     1.0  0.17084  0.16552  0.06528  1.0000
  Cu  Cu879     1.0  0.17084  0.00115  0.14862  1.0000
  Cu  Cu880     1.0  0.25773  0.16552  0.01805  1.0000
  Cu  Cu881     1.0  0.14286  0.00000  0.00000  1.0000
  Cu  Cu882     1.0  0.14286  0.00000  0.08333  1.0000
  Cu  Cu883     1.0  0.21429  0.08333  0.00000  1.0000
  Cu  Cu884     1.0  0.21429  0.08333  0.08333  1.0000
  Cu  Cu885     1.0  0.14286  0.02778  0.04167  1.0000
  Cu  Cu886     1.0  0.14286  0.13888  0.12500  1.0000
  Cu  Cu887     1.0  0.21429  0.11112  0.04167  1.0000
  Cu  Cu888     1.0  0.21429  0.05555  0.12500  1.0000
  Cu  Cu889     1.0  0.15714  0.08103  0.20000  1.0000
  Cu  Cu890     1.0  0.27143  0.08563  0.30000  1.0000
  Cu  Cu891     1.0  0.27143  0.08103  0.21667  1.0000
  Cu  Cu892     1.0  0.15714  0.08563  0.28333  1.0000
  Cu  Cu893     1.0  0.22857  0.16437  0.20000  1.0000
  Cu  Cu894     1.0  0.20000  0.00230  0.30000  1.0000
  Cu  Cu895     1.0  0.20000  0.16437  0.21667  1.0000
  Cu  Cu896     1.0  0.22857  0.00230  0.28333  1.0000
  Cu  Cu897     1.0  0.18630  0.08448  0.26805  1.0000
  Cu  Cu898     1.0  0.24227  0.08218  0.23195  1.0000
  Cu  Cu899     1.0  0.24227  0.08448  0.31528  1.0000
  Cu  Cu900     1.0  0.18630  0.08218  0.18472  1.0000
  Cu  Cu901     1.0  0.25773  0.00115  0.26805  1.0000
  Cu  Cu902     1.0  0.17084  0.16552  0.23195  1.0000
  Cu  Cu903     1.0  0.17084  0.00115  0.31528  1.0000
  Cu  Cu904     1.0  0.25773  0.16552  0.18472  1.0000
  Cu  Cu905     1.0  0.14286  0.00000  0.16667  1.0000
  Cu  Cu906     1.0  0.14286  0.00000  0.25000  1.0000
  Cu  Cu907     1.0  0.21429  0.08333  0.16667  1.0000
  Cu  Cu908     1.0  0.21429  0.08333  0.25000  1.0000
  Cu  Cu909     1.0  0.14286  0.02778  0.20833  1.0000
  Cu  Cu910     1.0  0.14286  0.13888  0.29167  1.0000
  Cu  Cu911     1.0  0.21429  0.11112  0.20833  1.0000
  Cu  Cu912     1.0  0.21429  0.05555  0.29167  1.0000
  Cu  Cu913     1.0  0.15714  0.08103  0.36667  1.0000
  Cu  Cu914     1.0  0.27143  0.08563  0.46667  1.0000
  Cu  Cu915     1.0  0.27143  0.08103  0.38333  1.0000
  Cu  Cu916     1.0  0.15714  0.08563  0.45000  1.0000
  Cu  Cu917     1.0  0.22857  0.16437  0.36667  1.0000
  Cu  Cu918     1.0  0.20000  0.00230  0.46667  1.0000
  Cu  Cu919     1.0  0.20000  0.16437  0.38333  1.0000
  Cu  Cu920     1.0  0.22857  0.00230  0.45000  1.0000
  Cu  Cu921     1.0  0.18630  0.08448  0.43472  1.0000
  Cu  Cu922     1.0  0.24227  0.08218  0.39862  1.0000
  Cu  Cu923     1.0  0.24227  0.08448  0.48195  1.0000
  Cu  Cu924     1.0  0.18630  0.08218  0.35138  1.0000
  Cu  Cu925     1.0  0.25773  0.00115  0.43472  1.0000
  Cu  Cu926     1.0  0.17084  0.16552  0.39862  1.0000
  Cu  Cu927     1.0  0.17084  0.00115  0.48195  1.0000
  Cu  Cu928     1.0  0.25773  0.16552  0.35138  1.0000
  Cu  Cu929     1.0  0.14286  0.00000  0.33333  1.0000
  Cu  Cu930     1.0  0.14286  0.00000  0.41667  1.0000
  Cu  Cu931     1.0  0.21429  0.08333  0.33333  1.0000
  Cu  Cu932     1.0  0.21429  0.08333  0.41667  1.0000
  Cu  Cu933     1.0  0.14286  0.02778  0.37500  1.0000
  Cu  Cu934     1.0  0.14286  0.13888  0.45833  1.0000
  Cu  Cu935     1.0  0.21429  0.11112  0.37500  1.0000
  Cu  Cu936     1.0  0.21429  0.05555  0.45833  1.0000
  Cu  Cu937     1.0  0.15714  0.08103  0.53333  1.0000
  Cu  Cu938     1.0  0.27143  0.08563  0.63333  1.0000
  Cu  Cu939     1.0  0.27143  0.08103  0.55000  1.0000
  Cu  Cu940     1.0  0.15714  0.08563  0.61667  1.0000
  Cu  Cu941     1.0  0.22857  0.16437  0.53333  1.0000
  Cu  Cu942     1.0  0.20000  0.00230  0.63333  1.0000
  Cu  Cu943     1.0  0.20000  0.16437  0.55000  1.0000
  Cu  Cu944     1.0  0.22857  0.00230  0.61667  1.0000
  Cu  Cu945     1.0  0.18630  0.08448  0.60138  1.0000
  Cu  Cu946     1.0  0.24227  0.08218  0.56528  1.0000
  Cu  Cu947     1.0  0.24227  0.08448  0.64862  1.0000
  Cu  Cu948     1.0  0.18630  0.08218  0.51805  1.0000
  Cu  Cu949     1.0  0.25773  0.00115  0.60138  1.0000
  Cu  Cu950     1.0  0.17084  0.16552  0.56528  1.0000
  Cu  Cu951     1.0  0.17084  0.00115  0.64862  1.0000
  Cu  Cu952     1.0  0.25773  0.16552  0.51805  1.0000
  Cu  Cu953     1.0  0.14286  0.00000  0.50000  1.0000
  Cu  Cu954     1.0  0.14286  0.00000  0.58333  1.0000
  Cu  Cu955     1.0  0.21429  0.08333  0.50000  1.0000
  Cu  Cu956     1.0  0.21429  0.08333  0.58333  1.0000
  Cu  Cu957     1.0  0.14286  0.02778  0.54167  1.0000
  Cu  Cu958     1.0  0.14286  0.13888  0.62500  1.0000
  Cu  Cu959     1.0  0.21429  0.11112  0.54167  1.0000
  Cu  Cu960     1.0  0.21429  0.05555  0.62500  1.0000
  Cu  Cu961     1.0  0.15714  0.08103  0.70000  1.0000
  Cu  Cu962     1.0  0.27143  0.08563  0.80000  1.0000
  Cu  Cu963     1.0  0.27143  0.08103  0.71667  1.0000
  Cu  Cu964     1.0  0.15714  0.08563  0.78333  1.0000
  Cu  Cu965     1.0  0.22857  0.16437  0.70000  1.0000
  Cu  Cu966     1.0  0.20000  0.00230  0.80000  1.0000
  Cu  Cu967     1.0  0.20000  0.16437  0.71667  1.0000
  Cu  Cu968     1.0  0.22857  0.00230  0.78333  1.0000
  Cu  Cu969     1.0  0.18630  0.08448  0.76805  1.0000
  Cu  Cu970     1.0  0.24227  0.08218  0.73195  1.0000
  Cu  Cu971     1.0  0.24227  0.08448  0.81528  1.0000
  Cu  Cu972     1.0  0.18630  0.08218  0.68472  1.0000
  Cu  Cu973     1.0  0.25773  0.00115  0.76805  1.0000
  Cu  Cu974     1.0  0.17084  0.16552  0.73195  1.0000
  Cu  Cu975     1.0  0.17084  0.00115  0.81528  1.0000
  Cu  Cu976     1.0  0.25773  0.16552  0.68472  1.0000
  Cu  Cu977     1.0  0.14286  0.00000  0.66667  1.0000
  Cu  Cu978     1.0  0.14286  0.00000  0.75000  1.0000
  Cu  Cu979     1.0  0.21429  0.08333  0.66667  1.0000
  Cu  Cu980     1.0  0.21429  0.08333  0.75000  1.0000
  Cu  Cu981     1.0  0.14286  0.02778  0.70833  1.0000
  Cu  Cu982     1.0  0.14286  0.13888  0.79167  1.0000
  Cu  Cu983     1.0  0.21429  0.11112  0.70833  1.0000
  Cu  Cu984     1.0  0.21429  0.05555  0.79167  1.0000
  Cu  Cu985     1.0  0.15714  0.08103  0.86667  1.0000
  Cu  Cu986     1.0  0.27143  0.08563  0.96667  1.0000
  Cu  Cu987     1.0  0.27143  0.08103  0.88333  1.0000
  Cu  Cu988     1.0  0.15714  0.08563  0.95000  1.0000
  Cu  Cu989     1.0  0.22857  0.16437  0.86667  1.0000
  Cu  Cu990     1.0  0.20000  0.00230  0.96667  1.0000
  Cu  Cu991     1.0  0.20000  0.16437  0.88333  1.0000
  Cu  Cu992     1.0  0.22857  0.00230  0.95000  1.0000
  Cu  Cu993     1.0  0.18630  0.08448  0.93472  1.0000
  Cu  Cu994     1.0  0.24227  0.08218  0.89862  1.0000
  Cu  Cu995     1.0  0.24227  0.08448  0.98195  1.0000
  Cu  Cu996     1.0  0.18630  0.08218  0.85138  1.0000
  Cu  Cu997     1.0  0.25773  0.00115  0.93472  1.0000
  Cu  Cu998     1.0  0.17084  0.16552  0.89862  1.0000
  Cu  Cu999     1.0  0.17084  0.00115  0.98195  1.0000
  Cu  Cu1000    1.0  0.25773  0.16552  0.85138  1.0000
  Cu  Cu1001    1.0  0.14286  0.00000  0.83333  1.0000
  Cu  Cu1002    1.0  0.14286  0.00000  0.91667  1.0000
  Cu  Cu1003    1.0  0.21429  0.08333  0.83333  1.0000
  Cu  Cu1004    1.0  0.21429  0.08333  0.91667  1.0000
  Cu  Cu1005    1.0  0.14286  0.02778  0.87500  1.0000
  Cu  Cu1006    1.0  0.14286  0.13888  0.95833  1.0000
  Cu  Cu1007    1.0  0.21429  0.11112  0.87500  1.0000
  Cu  Cu1008    1.0  0.21429  0.05555  0.95833  1.0000
  Cu  Cu1009    1.0  0.15714  0.24770  0.03333  1.0000
  Cu  Cu1010    1.0  0.27143  0.25230  0.13333  1.0000
  Cu  Cu1011    1.0  0.27143  0.24770  0.05000  1.0000
  Cu  Cu1012    1.0  0.15714  0.25230  0.11667  1.0000
  Cu  Cu1013    1.0  0.22857  0.33103  0.03333  1.0000
  Cu  Cu1014    1.0  0.20000  0.16897  0.13333  1.0000
  Cu  Cu1015    1.0  0.20000  0.33103  0.05000  1.0000
  Cu  Cu1016    1.0  0.22857  0.16897  0.11667  1.0000
  Cu  Cu1017    1.0  0.18630  0.25115  0.10138  1.0000
  Cu  Cu1018    1.0  0.24227  0.24885  0.06528  1.0000
  Cu  Cu1019    1.0  0.24227  0.25115  0.14862  1.0000
  Cu  Cu1020    1.0  0.18630  0.24885  0.01805  1.0000
  Cu  Cu1021    1.0  0.25773  0.16782  0.10138  1.0000
  Cu  Cu1022    1.0  0.17084  0.33218  0.06528  1.0000
  Cu  Cu1023    1.0  0.17084  0.16782  0.14862  1.0000
  Cu  Cu1024    1.0  0.25773  0.33218  0.01805  1.0000
  Cu  Cu1025    1.0  0.14286  0.16667  0.00000  1.0000
  Cu  Cu1026    1.0  0.14286  0.16667  0.08333  1.0000
  Cu  Cu1027    1.0  0.21429  0.25000  0.00000  1.0000
  Cu  Cu1028    1.0  0.21429  0.25000  0.08333  1.0000
  Cu  Cu1029    1.0  0.14286  0.19445  0.04167  1.0000
  Cu  Cu1030    1.0  0.14286  0.30555  0.12500  1.0000
  Cu  Cu1031    1.0  0.21429  0.27778  0.04167  1.0000
  Cu  Cu1032    1.0  0.21429  0.22222  0.12500  1.0000
  Cu  Cu1033    1.0  0.15714  0.24770  0.20000  1.0000
  Cu  Cu1034    1.0  0.27143  0.25230  0.30000  1.0000
  Cu  Cu1035    1.0  0.27143  0.24770  0.21667  1.0000
  Cu  Cu1036    1.0  0.15714  0.25230  0.28333  1.0000
  Cu  Cu1037    1.0  0.22857  0.33103  0.20000  1.0000
  Cu  Cu1038    1.0  0.20000  0.16897  0.30000  1.0000
  Cu  Cu1039    1.0  0.20000  0.33103  0.21667  1.0000
  Cu  Cu1040    1.0  0.22857  0.16897  0.28333  1.0000
  Cu  Cu1041    1.0  0.18630  0.25115  0.26805  1.0000
  Cu  Cu1042    1.0  0.24227  0.24885  0.23195  1.0000
  Cu  Cu1043    1.0  0.24227  0.25115  0.31528  1.0000
  Cu  Cu1044    1.0  0.18630  0.24885  0.18472  1.0000
  Cu  Cu1045    1.0  0.25773  0.16782  0.26805  1.0000
  Cu  Cu1046    1.0  0.17084  0.33218  0.23195  1.0000
  Cu  Cu1047    1.0  0.17084  0.16782  0.31528  1.0000
  Cu  Cu1048    1.0  0.25773  0.33218  0.18472  1.0000
  Cu  Cu1049    1.0  0.14286  0.16667  0.16667  1.0000
  Cu  Cu1050    1.0  0.14286  0.16667  0.25000  1.0000
  Cu  Cu1051    1.0  0.21429  0.25000  0.16667  1.0000
  Cu  Cu1052    1.0  0.21429  0.25000  0.25000  1.0000
  Cu  Cu1053    1.0  0.14286  0.19445  0.20833  1.0000
  Cu  Cu1054    1.0  0.14286  0.30555  0.29167  1.0000
  Cu  Cu1055    1.0  0.21429  0.27778  0.20833  1.0000
  Cu  Cu1056    1.0  0.21429  0.22222  0.29167  1.0000
  Cu  Cu1057    1.0  0.15714  0.24770  0.36667  1.0000
  Cu  Cu1058    1.0  0.27143  0.25230  0.46667  1.0000
  Cu  Cu1059    1.0  0.27143  0.24770  0.38333  1.0000
  Cu  Cu1060    1.0  0.15714  0.25230  0.45000  1.0000
  Cu  Cu1061    1.0  0.22857  0.33103  0.36667  1.0000
  Cu  Cu1062    1.0  0.20000  0.16897  0.46667  1.0000
  Cu  Cu1063    1.0  0.20000  0.33103  0.38333  1.0000
  Cu  Cu1064    1.0  0.22857  0.16897  0.45000  1.0000
  Cu  Cu1065    1.0  0.18630  0.25115  0.43472  1.0000
  Cu  Cu1066    1.0  0.24227  0.24885  0.39862  1.0000
  Cu  Cu1067    1.0  0.24227  0.25115  0.48195  1.0000
  Cu  Cu1068    1.0  0.18630  0.24885  0.35138  1.0000
  Cu  Cu1069    1.0  0.25773  0.16782  0.43472  1.0000
  Cu  Cu1070    1.0  0.17084  0.33218  0.39862  1.0000
  Cu  Cu1071    1.0  0.17084  0.16782  0.48195  1.0000
  Cu  Cu1072    1.0  0.25773  0.33218  0.35138  1.0000
  Cu  Cu1073    1.0  0.14286  0.16667  0.33333  1.0000
  Cu  Cu1074    1.0  0.14286  0.16667  0.41667  1.0000
  Cu  Cu1075    1.0  0.21429  0.25000  0.33333  1.0000
  Cu  Cu1076    1.0  0.21429  0.25000  0.41667  1.0000
  Cu  Cu1077    1.0  0.14286  0.19445  0.37500  1.0000
  Cu  Cu1078    1.0  0.14286  0.30555  0.45833  1.0000
  Cu  Cu1079    1.0  0.21429  0.27778  0.37500  1.0000
  Cu  Cu1080    1.0  0.21429  0.22222  0.45833  1.0000
  Cu  Cu1081    1.0  0.15714  0.24770  0.53333  1.0000
  Cu  Cu1082    1.0  0.27143  0.25230  0.63333  1.0000
  Cu  Cu1083    1.0  0.27143  0.24770  0.55000  1.0000
  Cu  Cu1084    1.0  0.15714  0.25230  0.61667  1.0000
  Cu  Cu1085    1.0  0.22857  0.33103  0.53333  1.0000
  Cu  Cu1086    1.0  0.20000  0.16897  0.63333  1.0000
  Cu  Cu1087    1.0  0.20000  0.33103  0.55000  1.0000
  Cu  Cu1088    1.0  0.22857  0.16897  0.61667  1.0000
  Cu  Cu1089    1.0  0.18630  0.25115  0.60138  1.0000
  Cu  Cu1090    1.0  0.24227  0.24885  0.56528  1.0000
  Cu  Cu1091    1.0  0.24227  0.25115  0.64862  1.0000
  Cu  Cu1092    1.0  0.18630  0.24885  0.51805  1.0000
  Cu  Cu1093    1.0  0.25773  0.16782  0.60138  1.0000
  Cu  Cu1094    1.0  0.17084  0.33218  0.56528  1.0000
  Cu  Cu1095    1.0  0.17084  0.16782  0.64862  1.0000
  Cu  Cu1096    1.0  0.25773  0.33218  0.51805  1.0000
  Cu  Cu1097    1.0  0.14286  0.16667  0.50000  1.0000
  Cu  Cu1098    1.0  0.14286  0.16667  0.58333  1.0000
  Cu  Cu1099    1.0  0.21429  0.25000  0.50000  1.0000
  Cu  Cu1100    1.0  0.21429  0.25000  0.58333  1.0000
  Cu  Cu1101    1.0  0.14286  0.19445  0.54167  1.0000
  Cu  Cu1102    1.0  0.14286  0.30555  0.62500  1.0000
  Cu  Cu1103    1.0  0.21429  0.27778  0.54167  1.0000
  Cu  Cu1104    1.0  0.21429  0.22222  0.62500  1.0000
  Cu  Cu1105    1.0  0.15714  0.24770  0.70000  1.0000
  Cu  Cu1106    1.0  0.27143  0.25230  0.80000  1.0000
  Cu  Cu1107    1.0  0.27143  0.24770  0.71667  1.0000
  Cu  Cu1108    1.0  0.15714  0.25230  0.78333  1.0000
  Cu  Cu1109    1.0  0.22857  0.33103  0.70000  1.0000
  Cu  Cu1110    1.0  0.20000  0.16897  0.80000  1.0000
  Cu  Cu1111    1.0  0.20000  0.33103  0.71667  1.0000
  Cu  Cu1112    1.0  0.22857  0.16897  0.78333  1.0000
  Cu  Cu1113    1.0  0.18630  0.25115  0.76805  1.0000
  Cu  Cu1114    1.0  0.24227  0.24885  0.73195  1.0000
  Cu  Cu1115    1.0  0.24227  0.25115  0.81528  1.0000
  Cu  Cu1116    1.0  0.18630  0.24885  0.68472  1.0000
  Cu  Cu1117    1.0  0.25773  0.16782  0.76805  1.0000
  Cu  Cu1118    1.0  0.17084  0.33218  0.73195  1.0000
  Cu  Cu1119    1.0  0.17084  0.16782  0.81528  1.0000
  Cu  Cu1120    1.0  0.25773  0.33218  0.68472  1.0000
  Cu  Cu1121    1.0  0.14286  0.16667  0.66667  1.0000
  Cu  Cu1122    1.0  0.14286  0.16667  0.75000  1.0000
  Cu  Cu1123    1.0  0.21429  0.25000  0.66667  1.0000
  Cu  Cu1124    1.0  0.21429  0.25000  0.75000  1.0000
  Cu  Cu1125    1.0  0.14286  0.19445  0.70833  1.0000
  Cu  Cu1126    1.0  0.14286  0.30555  0.79167  1.0000
  Cu  Cu1127    1.0  0.21429  0.27778  0.70833  1.0000
  Cu  Cu1128    1.0  0.21429  0.22222  0.79167  1.0000
  Cu  Cu1129    1.0  0.15714  0.24770  0.86667  1.0000
  Cu  Cu1130    1.0  0.27143  0.25230  0.96667  1.0000
  Cu  Cu1131    1.0  0.27143  0.24770  0.88333  1.0000
  Cu  Cu1132    1.0  0.15714  0.25230  0.95000  1.0000
  Cu  Cu1133    1.0  0.22857  0.33103  0.86667  1.0000
  Cu  Cu1134    1.0  0.20000  0.16897  0.96667  1.0000
  Cu  Cu1135    1.0  0.20000  0.33103  0.88333  1.0000
  Cu  Cu1136    1.0  0.22857  0.16897  0.95000  1.0000
  Cu  Cu1137    1.0  0.18630  0.25115  0.93472  1.0000
  Cu  Cu1138    1.0  0.24227  0.24885  0.89862  1.0000
  Cu  Cu1139    1.0  0.24227  0.25115  0.98195  1.0000
  Cu  Cu1140    1.0  0.18630  0.24885  0.85138  1.0000
  Cu  Cu1141    1.0  0.25773  0.16782  0.93472  1.0000
  Cu  Cu1142    1.0  0.17084  0.33218  0.89862  1.0000
  Cu  Cu1143    1.0  0.17084  0.16782  0.98195  1.0000
  Cu  Cu1144    1.0  0.25773  0.33218  0.85138  1.0000
  Cu  Cu1145    1.0  0.14286  0.16667  0.83333  1.0000
  Cu  Cu1146    1.0  0.14286  0.16667  0.91667  1.0000
  Cu  Cu1147    1.0  0.21429  0.25000  0.83333  1.0000
  Cu  Cu1148    1.0  0.21429  0.25000  0.91667  1.0000
  Cu  Cu1149    1.0  0.14286  0.19445  0.87500  1.0000
  Cu  Cu1150    1.0  0.14286  0.30555  0.95833  1.0000
  Cu  Cu1151    1.0  0.21429  0.27778  0.87500  1.0000
  Cu  Cu1152    1.0  0.21429  0.22222  0.95833  1.0000
  Cu  Cu1153    1.0  0.15714  0.41437  0.03333  1.0000
  Cu  Cu1154    1.0  0.27143  0.41897  0.13333  1.0000
  Cu  Cu1155    1.0  0.27143  0.41437  0.05000  1.0000
  Cu  Cu1156    1.0  0.15714  0.41897  0.11667  1.0000
  Cu  Cu1157    1.0  0.22857  0.49770  0.03333  1.0000
  Cu  Cu1158    1.0  0.20000  0.33563  0.13333  1.0000
  Cu  Cu1159    1.0  0.20000  0.49770  0.05000  1.0000
  Cu  Cu1160    1.0  0.22857  0.33563  0.11667  1.0000
  Cu  Cu1161    1.0  0.18630  0.41782  0.10138  1.0000
  Cu  Cu1162    1.0  0.24227  0.41552  0.06528  1.0000
  Cu  Cu1163    1.0  0.24227  0.41782  0.14862  1.0000
  Cu  Cu1164    1.0  0.18630  0.41552  0.01805  1.0000
  Cu  Cu1165    1.0  0.25773  0.33448  0.10138  1.0000
  Cu  Cu1166    1.0  0.17084  0.49885  0.06528  1.0000
  Cu  Cu1167    1.0  0.17084  0.33448  0.14862  1.0000
  Cu  Cu1168    1.0  0.25773  0.49885  0.01805  1.0000
  Cu  Cu1169    1.0  0.14286  0.33333  0.00000  1.0000
  Cu  Cu1170    1.0  0.14286  0.33333  0.08333  1.0000
  Cu  Cu1171    1.0  0.21429  0.41667  0.00000  1.0000
  Cu  Cu1172    1.0  0.21429  0.41667  0.08333  1.0000
  Cu  Cu1173    1.0  0.14286  0.36112  0.04167  1.0000
  Cu  Cu1174    1.0  0.14286  0.47222  0.12500  1.0000
  Cu  Cu1175    1.0  0.21429  0.44445  0.04167  1.0000
  Cu  Cu1176    1.0  0.21429  0.38888  0.12500  1.0000
  Cu  Cu1177    1.0  0.15714  0.41437  0.20000  1.0000
  Cu  Cu1178    1.0  0.27143  0.41897  0.30000  1.0000
  Cu  Cu1179    1.0  0.27143  0.41437  0.21667  1.0000
  Cu  Cu1180    1.0  0.15714  0.41897  0.28333  1.0000
  Cu  Cu1181    1.0  0.22857  0.49770  0.20000  1.0000
  Cu  Cu1182    1.0  0.20000  0.33563  0.30000  1.0000
  Cu  Cu1183    1.0  0.20000  0.49770  0.21667  1.0000
  Cu  Cu1184    1.0  0.22857  0.33563  0.28333  1.0000
  Cu  Cu1185    1.0  0.18630  0.41782  0.26805  1.0000
  Cu  Cu1186    1.0  0.24227  0.41552  0.23195  1.0000
  Cu  Cu1187    1.0  0.24227  0.41782  0.31528  1.0000
  Cu  Cu1188    1.0  0.18630  0.41552  0.18472  1.0000
  Cu  Cu1189    1.0  0.25773  0.33448  0.26805  1.0000
  Cu  Cu1190    1.0  0.17084  0.49885  0.23195  1.0000
  Cu  Cu1191    1.0  0.17084  0.33448  0.31528  1.0000
  Cu  Cu1192    1.0  0.25773  0.49885  0.18472  1.0000
  Cu  Cu1193    1.0  0.14286  0.33333  0.16667  1.0000
  Cu  Cu1194    1.0  0.14286  0.33333  0.25000  1.0000
  Cu  Cu1195    1.0  0.21429  0.41667  0.16667  1.0000
  Cu  Cu1196    1.0  0.21429  0.41667  0.25000  1.0000
  Cu  Cu1197    1.0  0.14286  0.36112  0.20833  1.0000
  Cu  Cu1198    1.0  0.14286  0.47222  0.29167  1.0000
  Cu  Cu1199    1.0  0.21429  0.44445  0.20833  1.0000
  Cu  Cu1200    1.0  0.21429  0.38888  0.29167  1.0000
  Cu  Cu1201    1.0  0.15714  0.41437  0.36667  1.0000
  Cu  Cu1202    1.0  0.27143  0.41897  0.46667  1.0000
  Cu  Cu1203    1.0  0.27143  0.41437  0.38333  1.0000
  Cu  Cu1204    1.0  0.15714  0.41897  0.45000  1.0000
  Cu  Cu1205    1.0  0.22857  0.49770  0.36667  1.0000
  Cu  Cu1206    1.0  0.20000  0.33563  0.46667  1.0000
  Cu  Cu1207    1.0  0.20000  0.49770  0.38333  1.0000
  Cu  Cu1208    1.0  0.22857  0.33563  0.45000  1.0000
  Cu  Cu1209    1.0  0.18630  0.41782  0.43472  1.0000
  Cu  Cu1210    1.0  0.24227  0.41552  0.39862  1.0000
  Cu  Cu1211    1.0  0.24227  0.41782  0.48195  1.0000
  Cu  Cu1212    1.0  0.18630  0.41552  0.35138  1.0000
  Cu  Cu1213    1.0  0.25773  0.33448  0.43472  1.0000
  Cu  Cu1214    1.0  0.17084  0.49885  0.39862  1.0000
  Cu  Cu1215    1.0  0.17084  0.33448  0.48195  1.0000
  Cu  Cu1216    1.0  0.25773  0.49885  0.35138  1.0000
  Cu  Cu1217    1.0  0.14286  0.33333  0.33333  1.0000
  Cu  Cu1218    1.0  0.14286  0.33333  0.41667  1.0000
  Cu  Cu1219    1.0  0.21429  0.41667  0.33333  1.0000
  Cu  Cu1220    1.0  0.21429  0.41667  0.41667  1.0000
  Cu  Cu1221    1.0  0.14286  0.36112  0.37500  1.0000
  Cu  Cu1222    1.0  0.14286  0.47222  0.45833  1.0000
  Cu  Cu1223    1.0  0.21429  0.44445  0.37500  1.0000
  Cu  Cu1224    1.0  0.21429  0.38888  0.45833  1.0000
  Cu  Cu1225    1.0  0.15714  0.41437  0.53333  1.0000
  Cu  Cu1226    1.0  0.27143  0.41897  0.63333  1.0000
  Cu  Cu1227    1.0  0.27143  0.41437  0.55000  1.0000
  Cu  Cu1228    1.0  0.15714  0.41897  0.61667  1.0000
  Cu  Cu1229    1.0  0.22857  0.49770  0.53333  1.0000
  Cu  Cu1230    1.0  0.20000  0.33563  0.63333  1.0000
  Cu  Cu1231    1.0  0.20000  0.49770  0.55000  1.0000
  Cu  Cu1232    1.0  0.22857  0.33563  0.61667  1.0000
  Cu  Cu1233    1.0  0.18630  0.41782  0.60138  1.0000
  Cu  Cu1234    1.0  0.24227  0.41552  0.56528  1.0000
  Cu  Cu1235    1.0  0.24227  0.41782  0.64862  1.0000
  Cu  Cu1236    1.0  0.18630  0.41552  0.51805  1.0000
  Cu  Cu1237    1.0  0.25773  0.33448  0.60138  1.0000
  Cu  Cu1238    1.0  0.17084  0.49885  0.56528  1.0000
  Cu  Cu1239    1.0  0.17084  0.33448  0.64862  1.0000
  Cu  Cu1240    1.0  0.25773  0.49885  0.51805  1.0000
  Cu  Cu1241    1.0  0.14286  0.33333  0.50000  1.0000
  Cu  Cu1242    1.0  0.14286  0.33333  0.58333  1.0000
  Cu  Cu1243    1.0  0.21429  0.41667  0.50000  1.0000
  Cu  Cu1244    1.0  0.21429  0.41667  0.58333  1.0000
  Cu  Cu1245    1.0  0.14286  0.36112  0.54167  1.0000
  Cu  Cu1246    1.0  0.14286  0.47222  0.62500  1.0000
  Cu  Cu1247    1.0  0.21429  0.44445  0.54167  1.0000
  Cu  Cu1248    1.0  0.21429  0.38888  0.62500  1.0000
  Cu  Cu1249    1.0  0.15714  0.41437  0.70000  1.0000
  Cu  Cu1250    1.0  0.27143  0.41897  0.80000  1.0000
  Cu  Cu1251    1.0  0.27143  0.41437  0.71667  1.0000
  Cu  Cu1252    1.0  0.15714  0.41897  0.78333  1.0000
  Cu  Cu1253    1.0  0.22857  0.49770  0.70000  1.0000
  Cu  Cu1254    1.0  0.20000  0.33563  0.80000  1.0000
  Cu  Cu1255    1.0  0.20000  0.49770  0.71667  1.0000
  Cu  Cu1256    1.0  0.22857  0.33563  0.78333  1.0000
  Cu  Cu1257    1.0  0.18630  0.41782  0.76805  1.0000
  Cu  Cu1258    1.0  0.24227  0.41552  0.73195  1.0000
  Cu  Cu1259    1.0  0.24227  0.41782  0.81528  1.0000
  Cu  Cu1260    1.0  0.18630  0.41552  0.68472  1.0000
  Cu  Cu1261    1.0  0.25773  0.33448  0.76805  1.0000
  Cu  Cu1262    1.0  0.17084  0.49885  0.73195  1.0000
  Cu  Cu1263    1.0  0.17084  0.33448  0.81528  1.0000
  Cu  Cu1264    1.0  0.25773  0.49885  0.68472  1.0000
  Cu  Cu1265    1.0  0.14286  0.33333  0.66667  1.0000
  Cu  Cu1266    1.0  0.14286  0.33333  0.75000  1.0000
  Cu  Cu1267    1.0  0.21429  0.41667  0.66667  1.0000
  Cu  Cu1268    1.0  0.21429  0.41667  0.75000  1.0000
  Cu  Cu1269    1.0  0.14286  0.36112  0.70833  1.0000
  Cu  Cu1270    1.0  0.14286  0.47222  0.79167  1.0000
  Cu  Cu1271    1.0  0.21429  0.44445  0.70833  1.0000
  Cu  Cu1272    1.0  0.21429  0.38888  0.79167  1.0000
  Cu  Cu1273    1.0  0.15714  0.41437  0.86667  1.0000
  Cu  Cu1274    1.0  0.27143  0.41897  0.96667  1.0000
  Cu  Cu1275    1.0  0.27143  0.41437  0.88333  1.0000
  Cu  Cu1276    1.0  0.15714  0.41897  0.95000  1.0000
  Cu  Cu1277    1.0  0.22857  0.49770  0.86667  1.0000
  Cu  Cu1278    1.0  0.20000  0.33563  0.96667  1.0000
  Cu  Cu1279    1.0  0.20000  0.49770  0.88333  1.0000
  Cu  Cu1280    1.0  0.22857  0.33563  0.95000  1.0000
  Cu  Cu1281    1.0  0.18630  0.41782  0.93472  1.0000
  Cu  Cu1282    1.0  0.24227  0.41552  0.89862  1.0000
  Cu  Cu1283    1.0  0.24227  0.41782  0.98195  1.0000
  Cu  Cu1284    1.0  0.18630  0.41552  0.85138  1.0000
  Cu  Cu1285    1.0  0.25773  0.33448  0.93472  1.0000
  Cu  Cu1286    1.0  0.17084  0.49885  0.89862  1.0000
  Cu  Cu1287    1.0  0.17084  0.33448  0.98195  1.0000
  Cu  Cu1288    1.0  0.25773  0.49885  0.85138  1.0000
  Cu  Cu1289    1.0  0.14286  0.33333  0.83333  1.0000
  Cu  Cu1290    1.0  0.14286  0.33333  0.91667  1.0000
  Cu  Cu1291    1.0  0.21429  0.41667  0.83333  1.0000
  Cu  Cu1292    1.0  0.21429  0.41667  0.91667  1.0000
  Cu  Cu1293    1.0  0.14286  0.36112  0.87500  1.0000
  Cu  Cu1294    1.0  0.14286  0.47222  0.95833  1.0000
  Cu  Cu1295    1.0  0.21429  0.44445  0.87500  1.0000
  Cu  Cu1296    1.0  0.21429  0.38888  0.95833  1.0000
  Cu  Cu1297    1.0  0.15714  0.58103  0.03333  1.0000
  Cu  Cu1298    1.0  0.27143  0.58563  0.13333  1.0000
  Cu  Cu1299    1.0  0.27143  0.58103  0.05000  1.0000
  Cu  Cu1300    1.0  0.15714  0.58563  0.11667  1.0000
  Cu  Cu1301    1.0  0.22857  0.66437  0.03333  1.0000
  Cu  Cu1302    1.0  0.20000  0.50230  0.13333  1.0000
  Cu  Cu1303    1.0  0.20000  0.66437  0.05000  1.0000
  Cu  Cu1304    1.0  0.22857  0.50230  0.11667  1.0000
  Cu  Cu1305    1.0  0.18630  0.58448  0.10138  1.0000
  Cu  Cu1306    1.0  0.24227  0.58218  0.06528  1.0000
  Cu  Cu1307    1.0  0.24227  0.58448  0.14862  1.0000
  Cu  Cu1308    1.0  0.18630  0.58218  0.01805  1.0000
  Cu  Cu1309    1.0  0.25773  0.50115  0.10138  1.0000
  Cu  Cu1310    1.0  0.17084  0.66552  0.06528  1.0000
  Cu  Cu1311    1.0  0.17084  0.50115  0.14862  1.0000
  Cu  Cu1312    1.0  0.25773  0.66552  0.01805  1.0000
  Cu  Cu1313    1.0  0.14286  0.50000  0.00000  1.0000
  Cu  Cu1314    1.0  0.14286  0.50000  0.08333  1.0000
  Cu  Cu1315    1.0  0.21429  0.58333  0.00000  1.0000
  Cu  Cu1316    1.0  0.21429  0.58333  0.08333  1.0000
  Cu  Cu1317    1.0  0.14286  0.52778  0.04167  1.0000
  Cu  Cu1318    1.0  0.14286  0.63888  0.12500  1.0000
  Cu  Cu1319    1.0  0.21429  0.61112  0.04167  1.0000
  Cu  Cu1320    1.0  0.21429  0.55555  0.12500  1.0000
  Cu  Cu1321    1.0  0.15714  0.58103  0.20000  1.0000
  Cu  Cu1322    1.0  0.27143  0.58563  0.30000  1.0000
  Cu  Cu1323    1.0  0.27143  0.58103  0.21667  1.0000
  Cu  Cu1324    1.0  0.15714  0.58563  0.28333  1.0000
  Cu  Cu1325    1.0  0.22857  0.66437  0.20000  1.0000
  Cu  Cu1326    1.0  0.20000  0.50230  0.30000  1.0000
  Cu  Cu1327    1.0  0.20000  0.66437  0.21667  1.0000
  Cu  Cu1328    1.0  0.22857  0.50230  0.28333  1.0000
  Cu  Cu1329    1.0  0.18630  0.58448  0.26805  1.0000
  Cu  Cu1330    1.0  0.24227  0.58218  0.23195  1.0000
  Cu  Cu1331    1.0  0.24227  0.58448  0.31528  1.0000
  Cu  Cu1332    1.0  0.18630  0.58218  0.18472  1.0000
  Cu  Cu1333    1.0  0.25773  0.50115  0.26805  1.0000
  Cu  Cu1334    1.0  0.17084  0.66552  0.23195  1.0000
  Cu  Cu1335    1.0  0.17084  0.50115  0.31528  1.0000
  Cu  Cu1336    1.0  0.25773  0.66552  0.18472  1.0000
  Cu  Cu1337    1.0  0.14286  0.50000  0.16667  1.0000
  Cu  Cu1338    1.0  0.14286  0.50000  0.25000  1.0000
  Cu  Cu1339    1.0  0.21429  0.58333  0.16667  1.0000
  Cu  Cu1340    1.0  0.21429  0.58333  0.25000  1.0000
  Cu  Cu1341    1.0  0.14286  0.52778  0.20833  1.0000
  Cu  Cu1342    1.0  0.14286  0.63888  0.29167  1.0000
  Cu  Cu1343    1.0  0.21429  0.61112  0.20833  1.0000
  Cu  Cu1344    1.0  0.21429  0.55555  0.29167  1.0000
  Cu  Cu1345    1.0  0.15714  0.58103  0.36667  1.0000
  Cu  Cu1346    1.0  0.27143  0.58563  0.46667  1.0000
  Cu  Cu1347    1.0  0.27143  0.58103  0.38333  1.0000
  Cu  Cu1348    1.0  0.15714  0.58563  0.45000  1.0000
  Cu  Cu1349    1.0  0.22857  0.66437  0.36667  1.0000
  Cu  Cu1350    1.0  0.20000  0.50230  0.46667  1.0000
  Cu  Cu1351    1.0  0.20000  0.66437  0.38333  1.0000
  Cu  Cu1352    1.0  0.22857  0.50230  0.45000  1.0000
  Cu  Cu1353    1.0  0.18630  0.58448  0.43472  1.0000
  Cu  Cu1354    1.0  0.24227  0.58218  0.39862  1.0000
  Cu  Cu1355    1.0  0.24227  0.58448  0.48195  1.0000
  Cu  Cu1356    1.0  0.18630  0.58218  0.35138  1.0000
  Cu  Cu1357    1.0  0.25773  0.50115  0.43472  1.0000
  Cu  Cu1358    1.0  0.17084  0.66552  0.39862  1.0000
  Cu  Cu1359    1.0  0.17084  0.50115  0.48195  1.0000
  Cu  Cu1360    1.0  0.25773  0.66552  0.35138  1.0000
  Cu  Cu1361    1.0  0.14286  0.50000  0.33333  1.0000
  Cu  Cu1362    1.0  0.14286  0.50000  0.41667  1.0000
  Cu  Cu1363    1.0  0.21429  0.58333  0.33333  1.0000
  Cu  Cu1364    1.0  0.21429  0.58333  0.41667  1.0000
  Cu  Cu1365    1.0  0.14286  0.52778  0.37500  1.0000
  Cu  Cu1366    1.0  0.14286  0.63888  0.45833  1.0000
  Cu  Cu1367    1.0  0.21429  0.61112  0.37500  1.0000
  Cu  Cu1368    1.0  0.21429  0.55555  0.45833  1.0000
  Cu  Cu1369    1.0  0.15714  0.58103  0.53333  1.0000
  Cu  Cu1370    1.0  0.27143  0.58563  0.63333  1.0000
  Cu  Cu1371    1.0  0.27143  0.58103  0.55000  1.0000
  Cu  Cu1372    1.0  0.15714  0.58563  0.61667  1.0000
  Cu  Cu1373    1.0  0.22857  0.66437  0.53333  1.0000
  Cu  Cu1374    1.0  0.20000  0.50230  0.63333  1.0000
  Cu  Cu1375    1.0  0.20000  0.66437  0.55000  1.0000
  Cu  Cu1376    1.0  0.22857  0.50230  0.61667  1.0000
  Cu  Cu1377    1.0  0.18630  0.58448  0.60138  1.0000
  Cu  Cu1378    1.0  0.24227  0.58218  0.56528  1.0000
  Cu  Cu1379    1.0  0.24227  0.58448  0.64862  1.0000
  Cu  Cu1380    1.0  0.18630  0.58218  0.51805  1.0000
  Cu  Cu1381    1.0  0.25773  0.50115  0.60138  1.0000
  Cu  Cu1382    1.0  0.17084  0.66552  0.56528  1.0000
  Cu  Cu1383    1.0  0.17084  0.50115  0.64862  1.0000
  Cu  Cu1384    1.0  0.25773  0.66552  0.51805  1.0000
  Cu  Cu1385    1.0  0.14286  0.50000  0.50000  1.0000
  Cu  Cu1386    1.0  0.14286  0.50000  0.58333  1.0000
  Cu  Cu1387    1.0  0.21429  0.58333  0.50000  1.0000
  Cu  Cu1388    1.0  0.21429  0.58333  0.58333  1.0000
  Cu  Cu1389    1.0  0.14286  0.52778  0.54167  1.0000
  Cu  Cu1390    1.0  0.14286  0.63888  0.62500  1.0000
  Cu  Cu1391    1.0  0.21429  0.61112  0.54167  1.0000
  Cu  Cu1392    1.0  0.21429  0.55555  0.62500  1.0000
  Cu  Cu1393    1.0  0.15714  0.58103  0.70000  1.0000
  Cu  Cu1394    1.0  0.27143  0.58563  0.80000  1.0000
  Cu  Cu1395    1.0  0.27143  0.58103  0.71667  1.0000
  Cu  Cu1396    1.0  0.15714  0.58563  0.78333  1.0000
  Cu  Cu1397    1.0  0.22857  0.66437  0.70000  1.0000
  Cu  Cu1398    1.0  0.20000  0.50230  0.80000  1.0000
  Cu  Cu1399    1.0  0.20000  0.66437  0.71667  1.0000
  Cu  Cu1400    1.0  0.22857  0.50230  0.78333  1.0000
  Cu  Cu1401    1.0  0.18630  0.58448  0.76805  1.0000
  Cu  Cu1402    1.0  0.24227  0.58218  0.73195  1.0000
  Cu  Cu1403    1.0  0.24227  0.58448  0.81528  1.0000
  Cu  Cu1404    1.0  0.18630  0.58218  0.68472  1.0000
  Cu  Cu1405    1.0  0.25773  0.50115  0.76805  1.0000
  Cu  Cu1406    1.0  0.17084  0.66552  0.73195  1.0000
  Cu  Cu1407    1.0  0.17084  0.50115  0.81528  1.0000
  Cu  Cu1408    1.0  0.25773  0.66552  0.68472  1.0000
  Cu  Cu1409    1.0  0.14286  0.50000  0.66667  1.0000
  Cu  Cu1410    1.0  0.14286  0.50000  0.75000  1.0000
  Cu  Cu1411    1.0  0.21429  0.58333  0.66667  1.0000
  Cu  Cu1412    1.0  0.21429  0.58333  0.75000  1.0000
  Cu  Cu1413    1.0  0.14286  0.52778  0.70833  1.0000
  Cu  Cu1414    1.0  0.14286  0.63888  0.79167  1.0000
  Cu  Cu1415    1.0  0.21429  0.61112  0.70833  1.0000
  Cu  Cu1416    1.0  0.21429  0.55555  0.79167  1.0000
  Cu  Cu1417    1.0  0.15714  0.58103  0.86667  1.0000
  Cu  Cu1418    1.0  0.27143  0.58563  0.96667  1.0000
  Cu  Cu1419    1.0  0.27143  0.58103  0.88333  1.0000
  Cu  Cu1420    1.0  0.15714  0.58563  0.95000  1.0000
  Cu  Cu1421    1.0  0.22857  0.66437  0.86667  1.0000
  Cu  Cu1422    1.0  0.20000  0.50230  0.96667  1.0000
  Cu  Cu1423    1.0  0.20000  0.66437  0.88333  1.0000
  Cu  Cu1424    1.0  0.22857  0.50230  0.95000  1.0000
  Cu  Cu1425    1.0  0.18630  0.58448  0.93472  1.0000
  Cu  Cu1426    1.0  0.24227  0.58218  0.89862  1.0000
  Cu  Cu1427    1.0  0.24227  0.58448  0.98195  1.0000
  Cu  Cu1428    1.0  0.18630  0.58218  0.85138  1.0000
  Cu  Cu1429    1.0  0.25773  0.50115  0.93472  1.0000
  Cu  Cu1430    1.0  0.17084  0.66552  0.89862  1.0000
  Cu  Cu1431    1.0  0.17084  0.50115  0.98195  1.0000
  Cu  Cu1432    1.0  0.25773  0.66552  0.85138  1.0000
  Cu  Cu1433    1.0  0.14286  0.50000  0.83333  1.0000
  Cu  Cu1434    1.0  0.14286  0.50000  0.91667  1.0000
  Cu  Cu1435    1.0  0.21429  0.58333  0.83333  1.0000
  Cu  Cu1436    1.0  0.21429  0.58333  0.91667  1.0000
  Cu  Cu1437    1.0  0.14286  0.52778  0.87500  1.0000
  Cu  Cu1438    1.0  0.14286  0.63888  0.95833  1.0000
  Cu  Cu1439    1.0  0.21429  0.61112  0.87500  1.0000
  Cu  Cu1440    1.0  0.21429  0.55555  0.95833  1.0000
  Cu  Cu1441    1.0  0.15714  0.74770  0.03333  1.0000
  Cu  Cu1442    1.0  0.27143  0.75230  0.13333  1.0000
  Cu  Cu1443    1.0  0.27143  0.74770  0.05000  1.0000
  Cu  Cu1444    1.0  0.15714  0.75230  0.11667  1.0000
  Cu  Cu1445    1.0  0.22857  0.83103  0.03333  1.0000
  Cu  Cu1446    1.0  0.20000  0.66897  0.13333  1.0000
  Cu  Cu1447    1.0  0.20000  0.83103  0.05000  1.0000
  Cu  Cu1448    1.0  0.22857  0.66897  0.11667  1.0000
  Cu  Cu1449    1.0  0.18630  0.75115  0.10138  1.0000
  Cu  Cu1450    1.0  0.24227  0.74885  0.06528  1.0000
  Cu  Cu1451    1.0  0.24227  0.75115  0.14862  1.0000
  Cu  Cu1452    1.0  0.18630  0.74885  0.01805  1.0000
  Cu  Cu1453    1.0  0.25773  0.66782  0.10138  1.0000
  Cu  Cu1454    1.0  0.17084  0.83218  0.06528  1.0000
  Cu  Cu1455    1.0  0.17084  0.66782  0.14862  1.0000
  Cu  Cu1456    1.0  0.25773  0.83218  0.01805  1.0000
  Cu  Cu1457    1.0  0.14286  0.66667  0.00000  1.0000
  Cu  Cu1458    1.0  0.14286  0.66667  0.08333  1.0000
  Cu  Cu1459    1.0  0.21429  0.75000  0.00000  1.0000
  Cu  Cu1460    1.0  0.21429  0.75000  0.08333  1.0000
  Cu  Cu1461    1.0  0.14286  0.69445  0.04167  1.0000
  Cu  Cu1462    1.0  0.14286  0.80555  0.12500  1.0000
  Cu  Cu1463    1.0  0.21429  0.77778  0.04167  1.0000
  Cu  Cu1464    1.0  0.21429  0.72222  0.12500  1.0000
  Cu  Cu1465    1.0  0.15714  0.74770  0.20000  1.0000
  Cu  Cu1466    1.0  0.27143  0.75230  0.30000  1.0000
  Cu  Cu1467    1.0  0.27143  0.74770  0.21667  1.0000
  Cu  Cu1468    1.0  0.15714  0.75230  0.28333  1.0000
  Cu  Cu1469    1.0  0.22857  0.83103  0.20000  1.0000
  Cu  Cu1470    1.0  0.20000  0.66897  0.30000  1.0000
  Cu  Cu1471    1.0  0.20000  0.83103  0.21667  1.0000
  Cu  Cu1472    1.0  0.22857  0.66897  0.28333  1.0000
  Cu  Cu1473    1.0  0.18630  0.75115  0.26805  1.0000
  Cu  Cu1474    1.0  0.24227  0.74885  0.23195  1.0000
  Cu  Cu1475    1.0  0.24227  0.75115  0.31528  1.0000
  Cu  Cu1476    1.0  0.18630  0.74885  0.18472  1.0000
  Cu  Cu1477    1.0  0.25773  0.66782  0.26805  1.0000
  Cu  Cu1478    1.0  0.17084  0.83218  0.23195  1.0000
  Cu  Cu1479    1.0  0.17084  0.66782  0.31528  1.0000
  Cu  Cu1480    1.0  0.25773  0.83218  0.18472  1.0000
  Cu  Cu1481    1.0  0.14286  0.66667  0.16667  1.0000
  Cu  Cu1482    1.0  0.14286  0.66667  0.25000  1.0000
  Cu  Cu1483    1.0  0.21429  0.75000  0.16667  1.0000
  Cu  Cu1484    1.0  0.21429  0.75000  0.25000  1.0000
  Cu  Cu1485    1.0  0.14286  0.69445  0.20833  1.0000
  Cu  Cu1486    1.0  0.14286  0.80555  0.29167  1.0000
  Cu  Cu1487    1.0  0.21429  0.77778  0.20833  1.0000
  Cu  Cu1488    1.0  0.21429  0.72222  0.29167  1.0000
  Cu  Cu1489    1.0  0.15714  0.74770  0.36667  1.0000
  Cu  Cu1490    1.0  0.27143  0.75230  0.46667  1.0000
  Cu  Cu1491    1.0  0.27143  0.74770  0.38333  1.0000
  Cu  Cu1492    1.0  0.15714  0.75230  0.45000  1.0000
  Cu  Cu1493    1.0  0.22857  0.83103  0.36667  1.0000
  Cu  Cu1494    1.0  0.20000  0.66897  0.46667  1.0000
  Cu  Cu1495    1.0  0.20000  0.83103  0.38333  1.0000
  Cu  Cu1496    1.0  0.22857  0.66897  0.45000  1.0000
  Cu  Cu1497    1.0  0.18630  0.75115  0.43472  1.0000
  Cu  Cu1498    1.0  0.24227  0.74885  0.39862  1.0000
  Cu  Cu1499    1.0  0.24227  0.75115  0.48195  1.0000
  Cu  Cu1500    1.0  0.18630  0.74885  0.35138  1.0000
  Cu  Cu1501    1.0  0.25773  0.66782  0.43472  1.0000
  Cu  Cu1502    1.0  0.17084  0.83218  0.39862  1.0000
  Cu  Cu1503    1.0  0.17084  0.66782  0.48195  1.0000
  Cu  Cu1504    1.0  0.25773  0.83218  0.35138  1.0000
  Cu  Cu1505    1.0  0.14286  0.66667  0.33333  1.0000
  Cu  Cu1506    1.0  0.14286  0.66667  0.41667  1.0000
  Cu  Cu1507    1.0  0.21429  0.75000  0.33333  1.0000
  Cu  Cu1508    1.0  0.21429  0.75000  0.41667  1.0000
  Cu  Cu1509    1.0  0.14286  0.69445  0.37500  1.0000
  Cu  Cu1510    1.0  0.14286  0.80555  0.45833  1.0000
  Cu  Cu1511    1.0  0.21429  0.77778  0.37500  1.0000
  Cu  Cu1512    1.0  0.21429  0.72222  0.45833  1.0000
  Cu  Cu1513    1.0  0.15714  0.74770  0.53333  1.0000
  Cu  Cu1514    1.0  0.27143  0.75230  0.63333  1.0000
  Cu  Cu1515    1.0  0.27143  0.74770  0.55000  1.0000
  Cu  Cu1516    1.0  0.15714  0.75230  0.61667  1.0000
  Cu  Cu1517    1.0  0.22857  0.83103  0.53333  1.0000
  Cu  Cu1518    1.0  0.20000  0.66897  0.63333  1.0000
  Cu  Cu1519    1.0  0.20000  0.83103  0.55000  1.0000
  Cu  Cu1520    1.0  0.22857  0.66897  0.61667  1.0000
  Cu  Cu1521    1.0  0.18630  0.75115  0.60138  1.0000
  Cu  Cu1522    1.0  0.24227  0.74885  0.56528  1.0000
  Cu  Cu1523    1.0  0.24227  0.75115  0.64862  1.0000
  Cu  Cu1524    1.0  0.18630  0.74885  0.51805  1.0000
  Cu  Cu1525    1.0  0.25773  0.66782  0.60138  1.0000
  Cu  Cu1526    1.0  0.17084  0.83218  0.56528  1.0000
  Cu  Cu1527    1.0  0.17084  0.66782  0.64862  1.0000
  Cu  Cu1528    1.0  0.25773  0.83218  0.51805  1.0000
  Cu  Cu1529    1.0  0.14286  0.66667  0.50000  1.0000
  Cu  Cu1530    1.0  0.14286  0.66667  0.58333  1.0000
  Cu  Cu1531    1.0  0.21429  0.75000  0.50000  1.0000
  Cu  Cu1532    1.0  0.21429  0.75000  0.58333  1.0000
  Cu  Cu1533    1.0  0.14286  0.69445  0.54167  1.0000
  Cu  Cu1534    1.0  0.14286  0.80555  0.62500  1.0000
  Cu  Cu1535    1.0  0.21429  0.77778  0.54167  1.0000
  Cu  Cu1536    1.0  0.21429  0.72222  0.62500  1.0000
  Cu  Cu1537    1.0  0.15714  0.74770  0.70000  1.0000
  Cu  Cu1538    1.0  0.27143  0.75230  0.80000  1.0000
  Cu  Cu1539    1.0  0.27143  0.74770  0.71667  1.0000
  Cu  Cu1540    1.0  0.15714  0.75230  0.78333  1.0000
  Cu  Cu1541    1.0  0.22857  0.83103  0.70000  1.0000
  Cu  Cu1542    1.0  0.20000  0.66897  0.80000  1.0000
  Cu  Cu1543    1.0  0.20000  0.83103  0.71667  1.0000
  Cu  Cu1544    1.0  0.22857  0.66897  0.78333  1.0000
  Cu  Cu1545    1.0  0.18630  0.75115  0.76805  1.0000
  Cu  Cu1546    1.0  0.24227  0.74885  0.73195  1.0000
  Cu  Cu1547    1.0  0.24227  0.75115  0.81528  1.0000
  Cu  Cu1548    1.0  0.18630  0.74885  0.68472  1.0000
  Cu  Cu1549    1.0  0.25773  0.66782  0.76805  1.0000
  Cu  Cu1550    1.0  0.17084  0.83218  0.73195  1.0000
  Cu  Cu1551    1.0  0.17084  0.66782  0.81528  1.0000
  Cu  Cu1552    1.0  0.25773  0.83218  0.68472  1.0000
  Cu  Cu1553    1.0  0.14286  0.66667  0.66667  1.0000
  Cu  Cu1554    1.0  0.14286  0.66667  0.75000  1.0000
  Cu  Cu1555    1.0  0.21429  0.75000  0.66667  1.0000
  Cu  Cu1556    1.0  0.21429  0.75000  0.75000  1.0000
  Cu  Cu1557    1.0  0.14286  0.69445  0.70833  1.0000
  Cu  Cu1558    1.0  0.14286  0.80555  0.79167  1.0000
  Cu  Cu1559    1.0  0.21429  0.77778  0.70833  1.0000
  Cu  Cu1560    1.0  0.21429  0.72222  0.79167  1.0000
  Cu  Cu1561    1.0  0.15714  0.74770  0.86667  1.0000
  Cu  Cu1562    1.0  0.27143  0.75230  0.96667  1.0000
  Cu  Cu1563    1.0  0.27143  0.74770  0.88333  1.0000
  Cu  Cu1564    1.0  0.15714  0.75230  0.95000  1.0000
  Cu  Cu1565    1.0  0.22857  0.83103  0.86667  1.0000
  Cu  Cu1566    1.0  0.20000  0.66897  0.96667  1.0000
  Cu  Cu1567    1.0  0.20000  0.83103  0.88333  1.0000
  Cu  Cu1568    1.0  0.22857  0.66897  0.95000  1.0000
  Cu  Cu1569    1.0  0.18630  0.75115  0.93472  1.0000
  Cu  Cu1570    1.0  0.24227  0.74885  0.89862  1.0000
  Cu  Cu1571    1.0  0.24227  0.75115  0.98195  1.0000
  Cu  Cu1572    1.0  0.18630  0.74885  0.85138  1.0000
  Cu  Cu1573    1.0  0.25773  0.66782  0.93472  1.0000
  Cu  Cu1574    1.0  0.17084  0.83218  0.89862  1.0000
  Cu  Cu1575    1.0  0.17084  0.66782  0.98195  1.0000
  Cu  Cu1576    1.0  0.25773  0.83218  0.85138  1.0000
  Cu  Cu1577    1.0  0.14286  0.66667  0.83333  1.0000
  Cu  Cu1578    1.0  0.14286  0.66667  0.91667  1.0000
  Cu  Cu1579    1.0  0.21429  0.75000  0.83333  1.0000
  Cu  Cu1580    1.0  0.21429  0.75000  0.91667  1.0000
  Cu  Cu1581    1.0  0.14286  0.69445  0.87500  1.0000
  Cu  Cu1582    1.0  0.14286  0.80555  0.95833  1.0000
  Cu  Cu1583    1.0  0.21429  0.77778  0.87500  1.0000
  Cu  Cu1584    1.0  0.21429  0.72222  0.95833  1.0000
  Cu  Cu1585    1.0  0.15714  0.91437  0.03333  1.0000
  Cu  Cu1586    1.0  0.27143  0.91897  0.13333  1.0000
  Cu  Cu1587    1.0  0.27143  0.91437  0.05000  1.0000
  Cu  Cu1588    1.0  0.15714  0.91897  0.11667  1.0000
  Cu  Cu1589    1.0  0.22857  0.99770  0.03333  1.0000
  Cu  Cu1590    1.0  0.20000  0.83563  0.13333  1.0000
  Cu  Cu1591    1.0  0.20000  0.99770  0.05000  1.0000
  Cu  Cu1592    1.0  0.22857  0.83563  0.11667  1.0000
  Cu  Cu1593    1.0  0.18630  0.91782  0.10138  1.0000
  Cu  Cu1594    1.0  0.24227  0.91552  0.06528  1.0000
  Cu  Cu1595    1.0  0.24227  0.91782  0.14862  1.0000
  Cu  Cu1596    1.0  0.18630  0.91552  0.01805  1.0000
  Cu  Cu1597    1.0  0.25773  0.83448  0.10138  1.0000
  Cu  Cu1598    1.0  0.17084  0.99885  0.06528  1.0000
  Cu  Cu1599    1.0  0.17084  0.83448  0.14862  1.0000
  Cu  Cu1600    1.0  0.25773  0.99885  0.01805  1.0000
  Cu  Cu1601    1.0  0.14286  0.83333  0.00000  1.0000
  Cu  Cu1602    1.0  0.14286  0.83333  0.08333  1.0000
  Cu  Cu1603    1.0  0.21429  0.91667  0.00000  1.0000
  Cu  Cu1604    1.0  0.21429  0.91667  0.08333  1.0000
  Cu  Cu1605    1.0  0.14286  0.86112  0.04167  1.0000
  Cu  Cu1606    1.0  0.14286  0.97222  0.12500  1.0000
  Cu  Cu1607    1.0  0.21429  0.94445  0.04167  1.0000
  Cu  Cu1608    1.0  0.21429  0.88888  0.12500  1.0000
  Cu  Cu1609    1.0  0.15714  0.91437  0.20000  1.0000
  Cu  Cu1610    1.0  0.27143  0.91897  0.30000  1.0000
  Cu  Cu1611    1.0  0.27143  0.91437  0.21667  1.0000
  Cu  Cu1612    1.0  0.15714  0.91897  0.28333  1.0000
  Cu  Cu1613    1.0  0.22857  0.99770  0.20000  1.0000
  Cu  Cu1614    1.0  0.20000  0.83563  0.30000  1.0000
  Cu  Cu1615    1.0  0.20000  0.99770  0.21667  1.0000
  Cu  Cu1616    1.0  0.22857  0.83563  0.28333  1.0000
  Cu  Cu1617    1.0  0.18630  0.91782  0.26805  1.0000
  Cu  Cu1618    1.0  0.24227  0.91552  0.23195  1.0000
  Cu  Cu1619    1.0  0.24227  0.91782  0.31528  1.0000
  Cu  Cu1620    1.0  0.18630  0.91552  0.18472  1.0000
  Cu  Cu1621    1.0  0.25773  0.83448  0.26805  1.0000
  Cu  Cu1622    1.0  0.17084  0.99885  0.23195  1.0000
  Cu  Cu1623    1.0  0.17084  0.83448  0.31528  1.0000
  Cu  Cu1624    1.0  0.25773  0.99885  0.18472  1.0000
  Cu  Cu1625    1.0  0.14286  0.83333  0.16667  1.0000
  Cu  Cu1626    1.0  0.14286  0.83333  0.25000  1.0000
  Cu  Cu1627    1.0  0.21429  0.91667  0.16667  1.0000
  Cu  Cu1628    1.0  0.21429  0.91667  0.25000  1.0000
  Cu  Cu1629    1.0  0.14286  0.86112  0.20833  1.0000
  Cu  Cu1630    1.0  0.14286  0.97222  0.29167  1.0000
  Cu  Cu1631    1.0  0.21429  0.94445  0.20833  1.0000
  Cu  Cu1632    1.0  0.21429  0.88888  0.29167  1.0000
  Cu  Cu1633    1.0  0.15714  0.91437  0.36667  1.0000
  Cu  Cu1634    1.0  0.27143  0.91897  0.46667  1.0000
  Cu  Cu1635    1.0  0.27143  0.91437  0.38333  1.0000
  Cu  Cu1636    1.0  0.15714  0.91897  0.45000  1.0000
  Cu  Cu1637    1.0  0.22857  0.99770  0.36667  1.0000
  Cu  Cu1638    1.0  0.20000  0.83563  0.46667  1.0000
  Cu  Cu1639    1.0  0.20000  0.99770  0.38333  1.0000
  Cu  Cu1640    1.0  0.22857  0.83563  0.45000  1.0000
  Cu  Cu1641    1.0  0.18630  0.91782  0.43472  1.0000
  Cu  Cu1642    1.0  0.24227  0.91552  0.39862  1.0000
  Cu  Cu1643    1.0  0.24227  0.91782  0.48195  1.0000
  Cu  Cu1644    1.0  0.18630  0.91552  0.35138  1.0000
  Cu  Cu1645    1.0  0.25773  0.83448  0.43472  1.0000
  Cu  Cu1646    1.0  0.17084  0.99885  0.39862  1.0000
  Cu  Cu1647    1.0  0.17084  0.83448  0.48195  1.0000
  Cu  Cu1648    1.0  0.25773  0.99885  0.35138  1.0000
  Cu  Cu1649    1.0  0.14286  0.83333  0.33333  1.0000
  Cu  Cu1650    1.0  0.14286  0.83333  0.41667  1.0000
  Cu  Cu1651    1.0  0.21429  0.91667  0.33333  1.0000
  Cu  Cu1652    1.0  0.21429  0.91667  0.41667  1.0000
  Cu  Cu1653    1.0  0.14286  0.86112  0.37500  1.0000
  Cu  Cu1654    1.0  0.14286  0.97222  0.45833  1.0000
  Cu  Cu1655    1.0  0.21429  0.94445  0.37500  1.0000
  Cu  Cu1656    1.0  0.21429  0.88888  0.45833  1.0000
  Cu  Cu1657    1.0  0.15714  0.91437  0.53333  1.0000
  Cu  Cu1658    1.0  0.27143  0.91897  0.63333  1.0000
  Cu  Cu1659    1.0  0.27143  0.91437  0.55000  1.0000
  Cu  Cu1660    1.0  0.15714  0.91897  0.61667  1.0000
  Cu  Cu1661    1.0  0.22857  0.99770  0.53333  1.0000
  Cu  Cu1662    1.0  0.20000  0.83563  0.63333  1.0000
  Cu  Cu1663    1.0  0.20000  0.99770  0.55000  1.0000
  Cu  Cu1664    1.0  0.22857  0.83563  0.61667  1.0000
  Cu  Cu1665    1.0  0.18630  0.91782  0.60138  1.0000
  Cu  Cu1666    1.0  0.24227  0.91552  0.56528  1.0000
  Cu  Cu1667    1.0  0.24227  0.91782  0.64862  1.0000
  Cu  Cu1668    1.0  0.18630  0.91552  0.51805  1.0000
  Cu  Cu1669    1.0  0.25773  0.83448  0.60138  1.0000
  Cu  Cu1670    1.0  0.17084  0.99885  0.56528  1.0000
  Cu  Cu1671    1.0  0.17084  0.83448  0.64862  1.0000
  Cu  Cu1672    1.0  0.25773  0.99885  0.51805  1.0000
  Cu  Cu1673    1.0  0.14286  0.83333  0.50000  1.0000
  Cu  Cu1674    1.0  0.14286  0.83333  0.58333  1.0000
  Cu  Cu1675    1.0  0.21429  0.91667  0.50000  1.0000
  Cu  Cu1676    1.0  0.21429  0.91667  0.58333  1.0000
  Cu  Cu1677    1.0  0.14286  0.86112  0.54167  1.0000
  Cu  Cu1678    1.0  0.14286  0.97222  0.62500  1.0000
  Cu  Cu1679    1.0  0.21429  0.94445  0.54167  1.0000
  Cu  Cu1680    1.0  0.21429  0.88888  0.62500  1.0000
  Cu  Cu1681    1.0  0.15714  0.91437  0.70000  1.0000
  Cu  Cu1682    1.0  0.27143  0.91897  0.80000  1.0000
  Cu  Cu1683    1.0  0.27143  0.91437  0.71667  1.0000
  Cu  Cu1684    1.0  0.15714  0.91897  0.78333  1.0000
  Cu  Cu1685    1.0  0.22857  0.99770  0.70000  1.0000
  Cu  Cu1686    1.0  0.20000  0.83563  0.80000  1.0000
  Cu  Cu1687    1.0  0.20000  0.99770  0.71667  1.0000
  Cu  Cu1688    1.0  0.22857  0.83563  0.78333  1.0000
  Cu  Cu1689    1.0  0.18630  0.91782  0.76805  1.0000
  Cu  Cu1690    1.0  0.24227  0.91552  0.73195  1.0000
  Cu  Cu1691    1.0  0.24227  0.91782  0.81528  1.0000
  Cu  Cu1692    1.0  0.18630  0.91552  0.68472  1.0000
  Cu  Cu1693    1.0  0.25773  0.83448  0.76805  1.0000
  Cu  Cu1694    1.0  0.17084  0.99885  0.73195  1.0000
  Cu  Cu1695    1.0  0.17084  0.83448  0.81528  1.0000
  Cu  Cu1696    1.0  0.25773  0.99885  0.68472  1.0000
  Cu  Cu1697    1.0  0.14286  0.83333  0.66667  1.0000
  Cu  Cu1698    1.0  0.14286  0.83333  0.75000  1.0000
  Cu  Cu1699    1.0  0.21429  0.91667  0.66667  1.0000
  Cu  Cu1700    1.0  0.21429  0.91667  0.75000  1.0000
  Cu  Cu1701    1.0  0.14286  0.86112  0.70833  1.0000
  Cu  Cu1702    1.0  0.14286  0.97222  0.79167  1.0000
  Cu  Cu1703    1.0  0.21429  0.94445  0.70833  1.0000
  Cu  Cu1704    1.0  0.21429  0.88888  0.79167  1.0000
  Cu  Cu1705    1.0  0.15714  0.91437  0.86667  1.0000
  Cu  Cu1706    1.0  0.27143  0.91897  0.96667  1.0000
  Cu  Cu1707    1.0  0.27143  0.91437  0.88333  1.0000
  Cu  Cu1708    1.0  0.15714  0.91897  0.95000  1.0000
  Cu  Cu1709    1.0  0.22857  0.99770  0.86667  1.0000
  Cu  Cu1710    1.0  0.20000  0.83563  0.96667  1.0000
  Cu  Cu1711    1.0  0.20000  0.99770  0.88333  1.0000
  Cu  Cu1712    1.0  0.22857  0.83563  0.95000  1.0000
  Cu  Cu1713    1.0  0.18630  0.91782  0.93472  1.0000
  Cu  Cu1714    1.0  0.24227  0.91552  0.89862  1.0000
  Cu  Cu1715    1.0  0.24227  0.91782  0.98195  1.0000
  Cu  Cu1716    1.0  0.18630  0.91552  0.85138  1.0000
  Cu  Cu1717    1.0  0.25773  0.83448  0.93472  1.0000
  Cu  Cu1718    1.0  0.17084  0.99885  0.89862  1.0000
  Cu  Cu1719    1.0  0.17084  0.83448  0.98195  1.0000
  Cu  Cu1720    1.0  0.25773  0.99885  0.85138  1.0000
  Cu  Cu1721    1.0  0.14286  0.83333  0.83333  1.0000
  Cu  Cu1722    1.0  0.14286  0.83333  0.91667  1.0000
  Cu  Cu1723    1.0  0.21429  0.91667  0.83333  1.0000
  Cu  Cu1724    1.0  0.21429  0.91667  0.91667  1.0000
  Cu  Cu1725    1.0  0.14286  0.86112  0.87500  1.0000
  Cu  Cu1726    1.0  0.14286  0.97222  0.95833  1.0000
  Cu  Cu1727    1.0  0.21429  0.94445  0.87500  1.0000
  Cu  Cu1728    1.0  0.21429  0.88888  0.95833  1.0000
  Cu  Cu1729    1.0  0.30000  0.08103  0.03333  1.0000
  Cu  Cu1730    1.0  0.41429  0.08563  0.13333  1.0000
  Cu  Cu1731    1.0  0.41429  0.08103  0.05000  1.0000
  Cu  Cu1732    1.0  0.30000  0.08563  0.11667  1.0000
  Cu  Cu1733    1.0  0.37143  0.16437  0.03333  1.0000
  Cu  Cu1734    1.0  0.34286  0.00230  0.13333  1.0000
  Cu  Cu1735    1.0  0.34286  0.16437  0.05000  1.0000
  Cu  Cu1736    1.0  0.37143  0.00230  0.11667  1.0000
  Cu  Cu1737    1.0  0.32916  0.08448  0.10138  1.0000
  Cu  Cu1738    1.0  0.38513  0.08218  0.06528  1.0000
  Cu  Cu1739    1.0  0.38513  0.08448  0.14862  1.0000
  Cu  Cu1740    1.0  0.32916  0.08218  0.01805  1.0000
  Cu  Cu1741    1.0  0.40059  0.00115  0.10138  1.0000
  Cu  Cu1742    1.0  0.31370  0.16552  0.06528  1.0000
  Cu  Cu1743    1.0  0.31370  0.00115  0.14862  1.0000
  Cu  Cu1744    1.0  0.40059  0.16552  0.01805  1.0000
  Cu  Cu1745    1.0  0.28571  0.00000  0.00000  1.0000
  Cu  Cu1746    1.0  0.28571  0.00000  0.08333  1.0000
  Cu  Cu1747    1.0  0.35714  0.08333  0.00000  1.0000
  Cu  Cu1748    1.0  0.35714  0.08333  0.08333  1.0000
  Cu  Cu1749    1.0  0.28571  0.02778  0.04167  1.0000
  Cu  Cu1750    1.0  0.28571  0.13888  0.12500  1.0000
  Cu  Cu1751    1.0  0.35714  0.11112  0.04167  1.0000
  Cu  Cu1752    1.0  0.35714  0.05555  0.12500  1.0000
  Cu  Cu1753    1.0  0.30000  0.08103  0.20000  1.0000
  Cu  Cu1754    1.0  0.41429  0.08563  0.30000  1.0000
  Cu  Cu1755    1.0  0.41429  0.08103  0.21667  1.0000
  Cu  Cu1756    1.0  0.30000  0.08563  0.28333  1.0000
  Cu  Cu1757    1.0  0.37143  0.16437  0.20000  1.0000
  Cu  Cu1758    1.0  0.34286  0.00230  0.30000  1.0000
  Cu  Cu1759    1.0  0.34286  0.16437  0.21667  1.0000
  Cu  Cu1760    1.0  0.37143  0.00230  0.28333  1.0000
  Cu  Cu1761    1.0  0.32916  0.08448  0.26805  1.0000
  Cu  Cu1762    1.0  0.38513  0.08218  0.23195  1.0000
  Cu  Cu1763    1.0  0.38513  0.08448  0.31528  1.0000
  Cu  Cu1764    1.0  0.32916  0.08218  0.18472  1.0000
  Cu  Cu1765    1.0  0.40059  0.00115  0.26805  1.0000
  Cu  Cu1766    1.0  0.31370  0.16552  0.23195  1.0000
  Cu  Cu1767    1.0  0.31370  0.00115  0.31528  1.0000
  Cu  Cu1768    1.0  0.40059  0.16552  0.18472  1.0000
  Cu  Cu1769    1.0  0.28571  0.00000  0.16667  1.0000
  Cu  Cu1770    1.0  0.28571  0.00000  0.25000  1.0000
  Cu  Cu1771    1.0  0.35714  0.08333  0.16667  1.0000
  Cu  Cu1772    1.0  0.35714  0.08333  0.25000  1.0000
  Cu  Cu1773    1.0  0.28571  0.02778  0.20833  1.0000
  Cu  Cu1774    1.0  0.28571  0.13888  0.29167  1.0000
  Cu  Cu1775    1.0  0.35714  0.11112  0.20833  1.0000
  Cu  Cu1776    1.0  0.35714  0.05555  0.29167  1.0000
  Cu  Cu1777    1.0  0.30000  0.08103  0.36667  1.0000
  Cu  Cu1778    1.0  0.41429  0.08563  0.46667  1.0000
  Cu  Cu1779    1.0  0.41429  0.08103  0.38333  1.0000
  Cu  Cu1780    1.0  0.30000  0.08563  0.45000  1.0000
  Cu  Cu1781    1.0  0.37143  0.16437  0.36667  1.0000
  Cu  Cu1782    1.0  0.34286  0.00230  0.46667  1.0000
  Cu  Cu1783    1.0  0.34286  0.16437  0.38333  1.0000
  Cu  Cu1784    1.0  0.37143  0.00230  0.45000  1.0000
  Cu  Cu1785    1.0  0.32916  0.08448  0.43472  1.0000
  Cu  Cu1786    1.0  0.38513  0.08218  0.39862  1.0000
  Cu  Cu1787    1.0  0.38513  0.08448  0.48195  1.0000
  Cu  Cu1788    1.0  0.32916  0.08218  0.35138  1.0000
  Cu  Cu1789    1.0  0.40059  0.00115  0.43472  1.0000
  Cu  Cu1790    1.0  0.31370  0.16552  0.39862  1.0000
  Cu  Cu1791    1.0  0.31370  0.00115  0.48195  1.0000
  Cu  Cu1792    1.0  0.40059  0.16552  0.35138  1.0000
  Cu  Cu1793    1.0  0.28571  0.00000  0.33333  1.0000
  Cu  Cu1794    1.0  0.28571  0.00000  0.41667  1.0000
  Cu  Cu1795    1.0  0.35714  0.08333  0.33333  1.0000
  Cu  Cu1796    1.0  0.35714  0.08333  0.41667  1.0000
  Cu  Cu1797    1.0  0.28571  0.02778  0.37500  1.0000
  Cu  Cu1798    1.0  0.28571  0.13888  0.45833  1.0000
  Cu  Cu1799    1.0  0.35714  0.11112  0.37500  1.0000
  Cu  Cu1800    1.0  0.35714  0.05555  0.45833  1.0000
  Cu  Cu1801    1.0  0.30000  0.08103  0.53333  1.0000
  Cu  Cu1802    1.0  0.41429  0.08563  0.63333  1.0000
  Cu  Cu1803    1.0  0.41429  0.08103  0.55000  1.0000
  Cu  Cu1804    1.0  0.30000  0.08563  0.61667  1.0000
  Cu  Cu1805    1.0  0.37143  0.16437  0.53333  1.0000
  Cu  Cu1806    1.0  0.34286  0.00230  0.63333  1.0000
  Cu  Cu1807    1.0  0.34286  0.16437  0.55000  1.0000
  Cu  Cu1808    1.0  0.37143  0.00230  0.61667  1.0000
  Cu  Cu1809    1.0  0.32916  0.08448  0.60138  1.0000
  Cu  Cu1810    1.0  0.38513  0.08218  0.56528  1.0000
  Cu  Cu1811    1.0  0.38513  0.08448  0.64862  1.0000
  Cu  Cu1812    1.0  0.32916  0.08218  0.51805  1.0000
  Cu  Cu1813    1.0  0.40059  0.00115  0.60138  1.0000
  Cu  Cu1814    1.0  0.31370  0.16552  0.56528  1.0000
  Cu  Cu1815    1.0  0.31370  0.00115  0.64862  1.0000
  Cu  Cu1816    1.0  0.40059  0.16552  0.51805  1.0000
  Cu  Cu1817    1.0  0.28571  0.00000  0.50000  1.0000
  Cu  Cu1818    1.0  0.28571  0.00000  0.58333  1.0000
  Cu  Cu1819    1.0  0.35714  0.08333  0.50000  1.0000
  Cu  Cu1820    1.0  0.35714  0.08333  0.58333  1.0000
  Cu  Cu1821    1.0  0.28571  0.02778  0.54167  1.0000
  Cu  Cu1822    1.0  0.28571  0.13888  0.62500  1.0000
  Cu  Cu1823    1.0  0.35714  0.11112  0.54167  1.0000
  Cu  Cu1824    1.0  0.35714  0.05555  0.62500  1.0000
  Cu  Cu1825    1.0  0.30000  0.08103  0.70000  1.0000
  Cu  Cu1826    1.0  0.41429  0.08563  0.80000  1.0000
  Cu  Cu1827    1.0  0.41429  0.08103  0.71667  1.0000
  Cu  Cu1828    1.0  0.30000  0.08563  0.78333  1.0000
  Cu  Cu1829    1.0  0.37143  0.16437  0.70000  1.0000
  Cu  Cu1830    1.0  0.34286  0.00230  0.80000  1.0000
  Cu  Cu1831    1.0  0.34286  0.16437  0.71667  1.0000
  Cu  Cu1832    1.0  0.37143  0.00230  0.78333  1.0000
  Cu  Cu1833    1.0  0.32916  0.08448  0.76805  1.0000
  Cu  Cu1834    1.0  0.38513  0.08218  0.73195  1.0000
  Cu  Cu1835    1.0  0.38513  0.08448  0.81528  1.0000
  Cu  Cu1836    1.0  0.32916  0.08218  0.68472  1.0000
  Cu  Cu1837    1.0  0.40059  0.00115  0.76805  1.0000
  Cu  Cu1838    1.0  0.31370  0.16552  0.73195  1.0000
  Cu  Cu1839    1.0  0.31370  0.00115  0.81528  1.0000
  Cu  Cu1840    1.0  0.40059  0.16552  0.68472  1.0000
  Cu  Cu1841    1.0  0.28571  0.00000  0.66667  1.0000
  Cu  Cu1842    1.0  0.28571  0.00000  0.75000  1.0000
  Cu  Cu1843    1.0  0.35714  0.08333  0.66667  1.0000
  Cu  Cu1844    1.0  0.35714  0.08333  0.75000  1.0000
  Cu  Cu1845    1.0  0.28571  0.02778  0.70833  1.0000
  Cu  Cu1846    1.0  0.28571  0.13888  0.79167  1.0000
  Cu  Cu1847    1.0  0.35714  0.11112  0.70833  1.0000
  Cu  Cu1848    1.0  0.35714  0.05555  0.79167  1.0000
  Cu  Cu1849    1.0  0.30000  0.08103  0.86667  1.0000
  Cu  Cu1850    1.0  0.41429  0.08563  0.96667  1.0000
  Cu  Cu1851    1.0  0.41429  0.08103  0.88333  1.0000
  Cu  Cu1852    1.0  0.30000  0.08563  0.95000  1.0000
  Cu  Cu1853    1.0  0.37143  0.16437  0.86667  1.0000
  Cu  Cu1854    1.0  0.34286  0.00230  0.96667  1.0000
  Cu  Cu1855    1.0  0.34286  0.16437  0.88333  1.0000
  Cu  Cu1856    1.0  0.37143  0.00230  0.95000  1.0000
  Cu  Cu1857    1.0  0.32916  0.08448  0.93472  1.0000
  Cu  Cu1858    1.0  0.38513  0.08218  0.89862  1.0000
  Cu  Cu1859    1.0  0.38513  0.08448  0.98195  1.0000
  Cu  Cu1860    1.0  0.32916  0.08218  0.85138  1.0000
  Cu  Cu1861    1.0  0.40059  0.00115  0.93472  1.0000
  Cu  Cu1862    1.0  0.31370  0.16552  0.89862  1.0000
  Cu  Cu1863    1.0  0.31370  0.00115  0.98195  1.0000
  Cu  Cu1864    1.0  0.40059  0.16552  0.85138  1.0000
  Cu  Cu1865    1.0  0.28571  0.00000  0.83333  1.0000
  Cu  Cu1866    1.0  0.28571  0.00000  0.91667  1.0000
  Cu  Cu1867    1.0  0.35714  0.08333  0.83333  1.0000
  Cu  Cu1868    1.0  0.35714  0.08333  0.91667  1.0000
  Cu  Cu1869    1.0  0.28571  0.02778  0.87500  1.0000
  Cu  Cu1870    1.0  0.28571  0.13888  0.95833  1.0000
  Cu  Cu1871    1.0  0.35714  0.11112  0.87500  1.0000
  Cu  Cu1872    1.0  0.35714  0.05555  0.95833  1.0000
  Cu  Cu1873    1.0  0.30000  0.24770  0.03333  1.0000
  Cu  Cu1874    1.0  0.41429  0.25230  0.13333  1.0000
  Cu  Cu1875    1.0  0.41429  0.24770  0.05000  1.0000
  Cu  Cu1876    1.0  0.30000  0.25230  0.11667  1.0000
  Cu  Cu1877    1.0  0.37143  0.33103  0.03333  1.0000
  Cu  Cu1878    1.0  0.34286  0.16897  0.13333  1.0000
  Cu  Cu1879    1.0  0.34286  0.33103  0.05000  1.0000
  Cu  Cu1880    1.0  0.37143  0.16897  0.11667  1.0000
  Cu  Cu1881    1.0  0.32916  0.25115  0.10138  1.0000
  Cu  Cu1882    1.0  0.38513  0.24885  0.06528  1.0000
  Cu  Cu1883    1.0  0.38513  0.25115  0.14862  1.0000
  Cu  Cu1884    1.0  0.32916  0.24885  0.01805  1.0000
  Cu  Cu1885    1.0  0.40059  0.16782  0.10138  1.0000
  Cu  Cu1886    1.0  0.31370  0.33218  0.06528  1.0000
  Cu  Cu1887    1.0  0.31370  0.16782  0.14862  1.0000
  Cu  Cu1888    1.0  0.40059  0.33218  0.01805  1.0000
  Cu  Cu1889    1.0  0.28571  0.16667  0.00000  1.0000
  Cu  Cu1890    1.0  0.28571  0.16667  0.08333  1.0000
  Cu  Cu1891    1.0  0.35714  0.25000  0.00000  1.0000
  Cu  Cu1892    1.0  0.35714  0.25000  0.08333  1.0000
  Cu  Cu1893    1.0  0.28571  0.19445  0.04167  1.0000
  Cu  Cu1894    1.0  0.28571  0.30555  0.12500  1.0000
  Cu  Cu1895    1.0  0.35714  0.27778  0.04167  1.0000
  Cu  Cu1896    1.0  0.35714  0.22222  0.12500  1.0000
  Cu  Cu1897    1.0  0.30000  0.24770  0.20000  1.0000
  Cu  Cu1898    1.0  0.41429  0.25230  0.30000  1.0000
  Cu  Cu1899    1.0  0.41429  0.24770  0.21667  1.0000
  Cu  Cu1900    1.0  0.30000  0.25230  0.28333  1.0000
  Cu  Cu1901    1.0  0.37143  0.33103  0.20000  1.0000
  Cu  Cu1902    1.0  0.34286  0.16897  0.30000  1.0000
  Cu  Cu1903    1.0  0.34286  0.33103  0.21667  1.0000
  Cu  Cu1904    1.0  0.37143  0.16897  0.28333  1.0000
  Cu  Cu1905    1.0  0.32916  0.25115  0.26805  1.0000
  Cu  Cu1906    1.0  0.38513  0.24885  0.23195  1.0000
  Cu  Cu1907    1.0  0.38513  0.25115  0.31528  1.0000
  Cu  Cu1908    1.0  0.32916  0.24885  0.18472  1.0000
  Cu  Cu1909    1.0  0.40059  0.16782  0.26805  1.0000
  Cu  Cu1910    1.0  0.31370  0.33218  0.23195  1.0000
  Cu  Cu1911    1.0  0.31370  0.16782  0.31528  1.0000
  Cu  Cu1912    1.0  0.40059  0.33218  0.18472  1.0000
  Cu  Cu1913    1.0  0.28571  0.16667  0.16667  1.0000
  Cu  Cu1914    1.0  0.28571  0.16667  0.25000  1.0000
  Cu  Cu1915    1.0  0.35714  0.25000  0.16667  1.0000
  Cu  Cu1916    1.0  0.35714  0.25000  0.25000  1.0000
  Cu  Cu1917    1.0  0.28571  0.19445  0.20833  1.0000
  Cu  Cu1918    1.0  0.28571  0.30555  0.29167  1.0000
  Cu  Cu1919    1.0  0.35714  0.27778  0.20833  1.0000
  Cu  Cu1920    1.0  0.35714  0.22222  0.29167  1.0000
  Cu  Cu1921    1.0  0.30000  0.24770  0.36667  1.0000
  Cu  Cu1922    1.0  0.41429  0.25230  0.46667  1.0000
  Cu  Cu1923    1.0  0.41429  0.24770  0.38333  1.0000
  Cu  Cu1924    1.0  0.30000  0.25230  0.45000  1.0000
  Cu  Cu1925    1.0  0.37143  0.33103  0.36667  1.0000
  Cu  Cu1926    1.0  0.34286  0.16897  0.46667  1.0000
  Cu  Cu1927    1.0  0.34286  0.33103  0.38333  1.0000
  Cu  Cu1928    1.0  0.37143  0.16897  0.45000  1.0000
  Cu  Cu1929    1.0  0.32916  0.25115  0.43472  1.0000
  Cu  Cu1930    1.0  0.38513  0.24885  0.39862  1.0000
  Cu  Cu1931    1.0  0.38513  0.25115  0.48195  1.0000
  Cu  Cu1932    1.0  0.32916  0.24885  0.35138  1.0000
  Cu  Cu1933    1.0  0.40059  0.16782  0.43472  1.0000
  Cu  Cu1934    1.0  0.31370  0.33218  0.39862  1.0000
  Cu  Cu1935    1.0  0.31370  0.16782  0.48195  1.0000
  Cu  Cu1936    1.0  0.40059  0.33218  0.35138  1.0000
  Cu  Cu1937    1.0  0.28571  0.16667  0.33333  1.0000
  Cu  Cu1938    1.0  0.28571  0.16667  0.41667  1.0000
  Cu  Cu1939    1.0  0.35714  0.25000  0.33333  1.0000
  Cu  Cu1940    1.0  0.35714  0.25000  0.41667  1.0000
  Cu  Cu1941    1.0  0.28571  0.19445  0.37500  1.0000
  Cu  Cu1942    1.0  0.28571  0.30555  0.45833  1.0000
  Cu  Cu1943    1.0  0.35714  0.27778  0.37500  1.0000
  Cu  Cu1944    1.0  0.35714  0.22222  0.45833  1.0000
  Cu  Cu1945    1.0  0.30000  0.24770  0.53333  1.0000
  Cu  Cu1946    1.0  0.41429  0.25230  0.63333  1.0000
  Cu  Cu1947    1.0  0.41429  0.24770  0.55000  1.0000
  Cu  Cu1948    1.0  0.30000  0.25230  0.61667  1.0000
  Cu  Cu1949    1.0  0.37143  0.33103  0.53333  1.0000
  Cu  Cu1950    1.0  0.34286  0.16897  0.63333  1.0000
  Cu  Cu1951    1.0  0.34286  0.33103  0.55000  1.0000
  Cu  Cu1952    1.0  0.37143  0.16897  0.61667  1.0000
  Cu  Cu1953    1.0  0.32916  0.25115  0.60138  1.0000
  Cu  Cu1954    1.0  0.38513  0.24885  0.56528  1.0000
  Cu  Cu1955    1.0  0.38513  0.25115  0.64862  1.0000
  Cu  Cu1956    1.0  0.32916  0.24885  0.51805  1.0000
  Cu  Cu1957    1.0  0.40059  0.16782  0.60138  1.0000
  Cu  Cu1958    1.0  0.31370  0.33218  0.56528  1.0000
  Cu  Cu1959    1.0  0.31370  0.16782  0.64862  1.0000
  Cu  Cu1960    1.0  0.40059  0.33218  0.51805  1.0000
  Cu  Cu1961    1.0  0.28571  0.16667  0.50000  1.0000
  Cu  Cu1962    1.0  0.28571  0.16667  0.58333  1.0000
  Cu  Cu1963    1.0  0.35714  0.25000  0.50000  1.0000
  Cu  Cu1964    1.0  0.35714  0.25000  0.58333  1.0000
  Cu  Cu1965    1.0  0.28571  0.19445  0.54167  1.0000
  Cu  Cu1966    1.0  0.28571  0.30555  0.62500  1.0000
  Cu  Cu1967    1.0  0.35714  0.27778  0.54167  1.0000
  Cu  Cu1968    1.0  0.35714  0.22222  0.62500  1.0000
  Cu  Cu1969    1.0  0.30000  0.24770  0.70000  1.0000
  Cu  Cu1970    1.0  0.41429  0.25230  0.80000  1.0000
  Cu  Cu1971    1.0  0.41429  0.24770  0.71667  1.0000
  Cu  Cu1972    1.0  0.30000  0.25230  0.78333  1.0000
  Cu  Cu1973    1.0  0.37143  0.33103  0.70000  1.0000
  Cu  Cu1974    1.0  0.34286  0.16897  0.80000  1.0000
  Cu  Cu1975    1.0  0.34286  0.33103  0.71667  1.0000
  Cu  Cu1976    1.0  0.37143  0.16897  0.78333  1.0000
  Cu  Cu1977    1.0  0.32916  0.25115  0.76805  1.0000
  Cu  Cu1978    1.0  0.38513  0.24885  0.73195  1.0000
  Cu  Cu1979    1.0  0.38513  0.25115  0.81528  1.0000
  Cu  Cu1980    1.0  0.32916  0.24885  0.68472  1.0000
  Cu  Cu1981    1.0  0.40059  0.16782  0.76805  1.0000
  Cu  Cu1982    1.0  0.31370  0.33218  0.73195  1.0000
  Cu  Cu1983    1.0  0.31370  0.16782  0.81528  1.0000
  Cu  Cu1984    1.0  0.40059  0.33218  0.68472  1.0000
  Cu  Cu1985    1.0  0.28571  0.16667  0.66667  1.0000
  Cu  Cu1986    1.0  0.28571  0.16667  0.75000  1.0000
  Cu  Cu1987    1.0  0.35714  0.25000  0.66667  1.0000
  Cu  Cu1988    1.0  0.35714  0.25000  0.75000  1.0000
  Cu  Cu1989    1.0  0.28571  0.19445  0.70833  1.0000
  Cu  Cu1990    1.0  0.28571  0.30555  0.79167  1.0000
  Cu  Cu1991    1.0  0.35714  0.27778  0.70833  1.0000
  Cu  Cu1992    1.0  0.35714  0.22222  0.79167  1.0000
  Cu  Cu1993    1.0  0.30000  0.24770  0.86667  1.0000
  Cu  Cu1994    1.0  0.41429  0.25230  0.96667  1.0000
  Cu  Cu1995    1.0  0.41429  0.24770  0.88333  1.0000
  Cu  Cu1996    1.0  0.30000  0.25230  0.95000  1.0000
  Cu  Cu1997    1.0  0.37143  0.33103  0.86667  1.0000
  Cu  Cu1998    1.0  0.34286  0.16897  0.96667  1.0000
  Cu  Cu1999    1.0  0.34286  0.33103  0.88333  1.0000
  Cu  Cu2000    1.0  0.37143  0.16897  0.95000  1.0000
  Cu  Cu2001    1.0  0.32916  0.25115  0.93472  1.0000
  Cu  Cu2002    1.0  0.38513  0.24885  0.89862  1.0000
  Cu  Cu2003    1.0  0.38513  0.25115  0.98195  1.0000
  Cu  Cu2004    1.0  0.32916  0.24885  0.85138  1.0000
  Cu  Cu2005    1.0  0.40059  0.16782  0.93472  1.0000
  Cu  Cu2006    1.0  0.31370  0.33218  0.89862  1.0000
  Cu  Cu2007    1.0  0.31370  0.16782  0.98195  1.0000
  Cu  Cu2008    1.0  0.40059  0.33218  0.85138  1.0000
  Cu  Cu2009    1.0  0.28571  0.16667  0.83333  1.0000
  Cu  Cu2010    1.0  0.28571  0.16667  0.91667  1.0000
  Cu  Cu2011    1.0  0.35714  0.25000  0.83333  1.0000
  Cu  Cu2012    1.0  0.35714  0.25000  0.91667  1.0000
  Cu  Cu2013    1.0  0.28571  0.19445  0.87500  1.0000
  Cu  Cu2014    1.0  0.28571  0.30555  0.95833  1.0000
  Cu  Cu2015    1.0  0.35714  0.27778  0.87500  1.0000
  Cu  Cu2016    1.0  0.35714  0.22222  0.95833  1.0000
  Cu  Cu2017    1.0  0.30000  0.41437  0.03333  1.0000
  Cu  Cu2018    1.0  0.41429  0.41897  0.13333  1.0000
  Cu  Cu2019    1.0  0.41429  0.41437  0.05000  1.0000
  Cu  Cu2020    1.0  0.30000  0.41897  0.11667  1.0000
  Cu  Cu2021    1.0  0.37143  0.49770  0.03333  1.0000
  Cu  Cu2022    1.0  0.34286  0.33563  0.13333  1.0000
  Cu  Cu2023    1.0  0.34286  0.49770  0.05000  1.0000
  Cu  Cu2024    1.0  0.37143  0.33563  0.11667  1.0000
  Cu  Cu2025    1.0  0.32916  0.41782  0.10138  1.0000
  Cu  Cu2026    1.0  0.38513  0.41552  0.06528  1.0000
  Cu  Cu2027    1.0  0.38513  0.41782  0.14862  1.0000
  Cu  Cu2028    1.0  0.32916  0.41552  0.01805  1.0000
  Cu  Cu2029    1.0  0.40059  0.33448  0.10138  1.0000
  Cu  Cu2030    1.0  0.31370  0.49885  0.06528  1.0000
  Cu  Cu2031    1.0  0.31370  0.33448  0.14862  1.0000
  Cu  Cu2032    1.0  0.40059  0.49885  0.01805  1.0000
  Cu  Cu2033    1.0  0.28571  0.33333  0.00000  1.0000
  Cu  Cu2034    1.0  0.28571  0.33333  0.08333  1.0000
  Cu  Cu2035    1.0  0.35714  0.41667  0.00000  1.0000
  Cu  Cu2036    1.0  0.35714  0.41667  0.08333  1.0000
  Cu  Cu2037    1.0  0.28571  0.36112  0.04167  1.0000
  Cu  Cu2038    1.0  0.28571  0.47222  0.12500  1.0000
  Cu  Cu2039    1.0  0.35714  0.44445  0.04167  1.0000
  Cu  Cu2040    1.0  0.35714  0.38888  0.12500  1.0000
  Cu  Cu2041    1.0  0.30000  0.41437  0.20000  1.0000
  Cu  Cu2042    1.0  0.41429  0.41897  0.30000  1.0000
  Cu  Cu2043    1.0  0.41429  0.41437  0.21667  1.0000
  Cu  Cu2044    1.0  0.30000  0.41897  0.28333  1.0000
  Cu  Cu2045    1.0  0.37143  0.49770  0.20000  1.0000
  Cu  Cu2046    1.0  0.34286  0.33563  0.30000  1.0000
  Cu  Cu2047    1.0  0.34286  0.49770  0.21667  1.0000
  Cu  Cu2048    1.0  0.37143  0.33563  0.28333  1.0000
  Cu  Cu2049    1.0  0.32916  0.41782  0.26805  1.0000
  Cu  Cu2050    1.0  0.38513  0.41552  0.23195  1.0000
  Cu  Cu2051    1.0  0.38513  0.41782  0.31528  1.0000
  Cu  Cu2052    1.0  0.32916  0.41552  0.18472  1.0000
  Cu  Cu2053    1.0  0.40059  0.33448  0.26805  1.0000
  Cu  Cu2054    1.0  0.31370  0.49885  0.23195  1.0000
  Cu  Cu2055    1.0  0.31370  0.33448  0.31528  1.0000
  Cu  Cu2056    1.0  0.40059  0.49885  0.18472  1.0000
  Cu  Cu2057    1.0  0.28571  0.33333  0.16667  1.0000
  Cu  Cu2058    1.0  0.28571  0.33333  0.25000  1.0000
  Cu  Cu2059    1.0  0.35714  0.41667  0.16667  1.0000
  Cu  Cu2060    1.0  0.35714  0.41667  0.25000  1.0000
  Cu  Cu2061    1.0  0.28571  0.36112  0.20833  1.0000
  Cu  Cu2062    1.0  0.28571  0.47222  0.29167  1.0000
  Cu  Cu2063    1.0  0.35714  0.44445  0.20833  1.0000
  Cu  Cu2064    1.0  0.35714  0.38888  0.29167  1.0000
  Cu  Cu2065    1.0  0.30000  0.41437  0.36667  1.0000
  Cu  Cu2066    1.0  0.41429  0.41897  0.46667  1.0000
  Cu  Cu2067    1.0  0.41429  0.41437  0.38333  1.0000
  Cu  Cu2068    1.0  0.30000  0.41897  0.45000  1.0000
  Cu  Cu2069    1.0  0.37143  0.49770  0.36667  1.0000
  Cu  Cu2070    1.0  0.34286  0.33563  0.46667  1.0000
  Cu  Cu2071    1.0  0.34286  0.49770  0.38333  1.0000
  Cu  Cu2072    1.0  0.37143  0.33563  0.45000  1.0000
  Cu  Cu2073    1.0  0.32916  0.41782  0.43472  1.0000
  Cu  Cu2074    1.0  0.38513  0.41552  0.39862  1.0000
  Cu  Cu2075    1.0  0.38513  0.41782  0.48195  1.0000
  Cu  Cu2076    1.0  0.32916  0.41552  0.35138  1.0000
  Cu  Cu2077    1.0  0.40059  0.33448  0.43472  1.0000
  Cu  Cu2078    1.0  0.31370  0.49885  0.39862  1.0000
  Cu  Cu2079    1.0  0.31370  0.33448  0.48195  1.0000
  Cu  Cu2080    1.0  0.40059  0.49885  0.35138  1.0000
  Cu  Cu2081    1.0  0.28571  0.33333  0.33333  1.0000
  Cu  Cu2082    1.0  0.28571  0.33333  0.41667  1.0000
  Cu  Cu2083    1.0  0.35714  0.41667  0.33333  1.0000
  Cu  Cu2084    1.0  0.35714  0.41667  0.41667  1.0000
  Cu  Cu2085    1.0  0.28571  0.36112  0.37500  1.0000
  Cu  Cu2086    1.0  0.28571  0.47222  0.45833  1.0000
  Cu  Cu2087    1.0  0.35714  0.44445  0.37500  1.0000
  Cu  Cu2088    1.0  0.35714  0.38888  0.45833  1.0000
  Cu  Cu2089    1.0  0.30000  0.41437  0.53333  1.0000
  Cu  Cu2090    1.0  0.41429  0.41897  0.63333  1.0000
  Cu  Cu2091    1.0  0.41429  0.41437  0.55000  1.0000
  Cu  Cu2092    1.0  0.30000  0.41897  0.61667  1.0000
  Cu  Cu2093    1.0  0.37143  0.49770  0.53333  1.0000
  Cu  Cu2094    1.0  0.34286  0.33563  0.63333  1.0000
  Cu  Cu2095    1.0  0.34286  0.49770  0.55000  1.0000
  Cu  Cu2096    1.0  0.37143  0.33563  0.61667  1.0000
  Cu  Cu2097    1.0  0.32916  0.41782  0.60138  1.0000
  Cu  Cu2098    1.0  0.38513  0.41552  0.56528  1.0000
  Cu  Cu2099    1.0  0.38513  0.41782  0.64862  1.0000
  Cu  Cu2100    1.0  0.32916  0.41552  0.51805  1.0000
  Cu  Cu2101    1.0  0.40059  0.33448  0.60138  1.0000
  Cu  Cu2102    1.0  0.31370  0.49885  0.56528  1.0000
  Cu  Cu2103    1.0  0.31370  0.33448  0.64862  1.0000
  Cu  Cu2104    1.0  0.40059  0.49885  0.51805  1.0000
  Cu  Cu2105    1.0  0.28571  0.33333  0.50000  1.0000
  Cu  Cu2106    1.0  0.28571  0.33333  0.58333  1.0000
  Cu  Cu2107    1.0  0.35714  0.41667  0.50000  1.0000
  Cu  Cu2108    1.0  0.35714  0.41667  0.58333  1.0000
  Cu  Cu2109    1.0  0.28571  0.36112  0.54167  1.0000
  Cu  Cu2110    1.0  0.28571  0.47222  0.62500  1.0000
  Cu  Cu2111    1.0  0.35714  0.44445  0.54167  1.0000
  Cu  Cu2112    1.0  0.35714  0.38888  0.62500  1.0000
  Cu  Cu2113    1.0  0.30000  0.41437  0.70000  1.0000
  Cu  Cu2114    1.0  0.41429  0.41897  0.80000  1.0000
  Cu  Cu2115    1.0  0.41429  0.41437  0.71667  1.0000
  Cu  Cu2116    1.0  0.30000  0.41897  0.78333  1.0000
  Cu  Cu2117    1.0  0.37143  0.49770  0.70000  1.0000
  Cu  Cu2118    1.0  0.34286  0.33563  0.80000  1.0000
  Cu  Cu2119    1.0  0.34286  0.49770  0.71667  1.0000
  Cu  Cu2120    1.0  0.37143  0.33563  0.78333  1.0000
  Cu  Cu2121    1.0  0.32916  0.41782  0.76805  1.0000
  Cu  Cu2122    1.0  0.38513  0.41552  0.73195  1.0000
  Cu  Cu2123    1.0  0.38513  0.41782  0.81528  1.0000
  Cu  Cu2124    1.0  0.32916  0.41552  0.68472  1.0000
  Cu  Cu2125    1.0  0.40059  0.33448  0.76805  1.0000
  Cu  Cu2126    1.0  0.31370  0.49885  0.73195  1.0000
  Cu  Cu2127    1.0  0.31370  0.33448  0.81528  1.0000
  Cu  Cu2128    1.0  0.40059  0.49885  0.68472  1.0000
  Cu  Cu2129    1.0  0.28571  0.33333  0.66667  1.0000
  Cu  Cu2130    1.0  0.28571  0.33333  0.75000  1.0000
  Cu  Cu2131    1.0  0.35714  0.41667  0.66667  1.0000
  Cu  Cu2132    1.0  0.35714  0.41667  0.75000  1.0000
  Cu  Cu2133    1.0  0.28571  0.36112  0.70833  1.0000
  Cu  Cu2134    1.0  0.28571  0.47222  0.79167  1.0000
  Cu  Cu2135    1.0  0.35714  0.44445  0.70833  1.0000
  Cu  Cu2136    1.0  0.35714  0.38888  0.79167  1.0000
  Cu  Cu2137    1.0  0.30000  0.41437  0.86667  1.0000
  Cu  Cu2138    1.0  0.41429  0.41897  0.96667  1.0000
  Cu  Cu2139    1.0  0.41429  0.41437  0.88333  1.0000
  Cu  Cu2140    1.0  0.30000  0.41897  0.95000  1.0000
  Cu  Cu2141    1.0  0.37143  0.49770  0.86667  1.0000
  Cu  Cu2142    1.0  0.34286  0.33563  0.96667  1.0000
  Cu  Cu2143    1.0  0.34286  0.49770  0.88333  1.0000
  Cu  Cu2144    1.0  0.37143  0.33563  0.95000  1.0000
  Cu  Cu2145    1.0  0.32916  0.41782  0.93472  1.0000
  Cu  Cu2146    1.0  0.38513  0.41552  0.89862  1.0000
  Cu  Cu2147    1.0  0.38513  0.41782  0.98195  1.0000
  Cu  Cu2148    1.0  0.32916  0.41552  0.85138  1.0000
  Cu  Cu2149    1.0  0.40059  0.33448  0.93472  1.0000
  Cu  Cu2150    1.0  0.31370  0.49885  0.89862  1.0000
  Cu  Cu2151    1.0  0.31370  0.33448  0.98195  1.0000
  Cu  Cu2152    1.0  0.40059  0.49885  0.85138  1.0000
  Cu  Cu2153    1.0  0.28571  0.33333  0.83333  1.0000
  Cu  Cu2154    1.0  0.28571  0.33333  0.91667  1.0000
  Cu  Cu2155    1.0  0.35714  0.41667  0.83333  1.0000
  Cu  Cu2156    1.0  0.35714  0.41667  0.91667  1.0000
  Cu  Cu2157    1.0  0.28571  0.36112  0.87500  1.0000
  Cu  Cu2158    1.0  0.28571  0.47222  0.95833  1.0000
  Cu  Cu2159    1.0  0.35714  0.44445  0.87500  1.0000
  Cu  Cu2160    1.0  0.35714  0.38888  0.95833  1.0000
  Cu  Cu2161    1.0  0.30000  0.58103  0.03333  1.0000
  Cu  Cu2162    1.0  0.41429  0.58563  0.13333  1.0000
  Cu  Cu2163    1.0  0.41429  0.58103  0.05000  1.0000
  Cu  Cu2164    1.0  0.30000  0.58563  0.11667  1.0000
  Cu  Cu2165    1.0  0.37143  0.66437  0.03333  1.0000
  Cu  Cu2166    1.0  0.34286  0.50230  0.13333  1.0000
  Cu  Cu2167    1.0  0.34286  0.66437  0.05000  1.0000
  Cu  Cu2168    1.0  0.37143  0.50230  0.11667  1.0000
  Cu  Cu2169    1.0  0.32916  0.58448  0.10138  1.0000
  Cu  Cu2170    1.0  0.38513  0.58218  0.06528  1.0000
  Cu  Cu2171    1.0  0.38513  0.58448  0.14862  1.0000
  Cu  Cu2172    1.0  0.32916  0.58218  0.01805  1.0000
  Cu  Cu2173    1.0  0.40059  0.50115  0.10138  1.0000
  Cu  Cu2174    1.0  0.31370  0.66552  0.06528  1.0000
  Cu  Cu2175    1.0  0.31370  0.50115  0.14862  1.0000
  Cu  Cu2176    1.0  0.40059  0.66552  0.01805  1.0000
  Cu  Cu2177    1.0  0.28571  0.50000  0.00000  1.0000
  Cu  Cu2178    1.0  0.28571  0.50000  0.08333  1.0000
  Cu  Cu2179    1.0  0.35714  0.58333  0.00000  1.0000
  Cu  Cu2180    1.0  0.35714  0.58333  0.08333  1.0000
  Cu  Cu2181    1.0  0.28571  0.52778  0.04167  1.0000
  Cu  Cu2182    1.0  0.28571  0.63888  0.12500  1.0000
  Cu  Cu2183    1.0  0.35714  0.61112  0.04167  1.0000
  Cu  Cu2184    1.0  0.35714  0.55555  0.12500  1.0000
  Cu  Cu2185    1.0  0.30000  0.58103  0.20000  1.0000
  Cu  Cu2186    1.0  0.41429  0.58563  0.30000  1.0000
  Cu  Cu2187    1.0  0.41429  0.58103  0.21667  1.0000
  Cu  Cu2188    1.0  0.30000  0.58563  0.28333  1.0000
  Cu  Cu2189    1.0  0.37143  0.66437  0.20000  1.0000
  Cu  Cu2190    1.0  0.34286  0.50230  0.30000  1.0000
  Cu  Cu2191    1.0  0.34286  0.66437  0.21667  1.0000
  Cu  Cu2192    1.0  0.37143  0.50230  0.28333  1.0000
  Cu  Cu2193    1.0  0.32916  0.58448  0.26805  1.0000
  Cu  Cu2194    1.0  0.38513  0.58218  0.23195  1.0000
  Cu  Cu2195    1.0  0.38513  0.58448  0.31528  1.0000
  Cu  Cu2196    1.0  0.32916  0.58218  0.18472  1.0000
  Cu  Cu2197    1.0  0.40059  0.50115  0.26805  1.0000
  Cu  Cu2198    1.0  0.31370  0.66552  0.23195  1.0000
  Cu  Cu2199    1.0  0.31370  0.50115  0.31528  1.0000
  Cu  Cu2200    1.0  0.40059  0.66552  0.18472  1.0000
  Cu  Cu2201    1.0  0.28571  0.50000  0.16667  1.0000
  Cu  Cu2202    1.0  0.28571  0.50000  0.25000  1.0000
  Cu  Cu2203    1.0  0.35714  0.58333  0.16667  1.0000
  Cu  Cu2204    1.0  0.35714  0.58333  0.25000  1.0000
  Cu  Cu2205    1.0  0.28571  0.52778  0.20833  1.0000
  Cu  Cu2206    1.0  0.28571  0.63888  0.29167  1.0000
  Cu  Cu2207    1.0  0.35714  0.61112  0.20833  1.0000
  Cu  Cu2208    1.0  0.35714  0.55555  0.29167  1.0000
  Cu  Cu2209    1.0  0.30000  0.58103  0.36667  1.0000
  Cu  Cu2210    1.0  0.41429  0.58563  0.46667  1.0000
  Cu  Cu2211    1.0  0.41429  0.58103  0.38333  1.0000
  Cu  Cu2212    1.0  0.30000  0.58563  0.45000  1.0000
  Cu  Cu2213    1.0  0.37143  0.66437  0.36667  1.0000
  Cu  Cu2214    1.0  0.34286  0.50230  0.46667  1.0000
  Cu  Cu2215    1.0  0.34286  0.66437  0.38333  1.0000
  Cu  Cu2216    1.0  0.37143  0.50230  0.45000  1.0000
  Cu  Cu2217    1.0  0.32916  0.58448  0.43472  1.0000
  Cu  Cu2218    1.0  0.38513  0.58218  0.39862  1.0000
  Cu  Cu2219    1.0  0.38513  0.58448  0.48195  1.0000
  Cu  Cu2220    1.0  0.32916  0.58218  0.35138  1.0000
  Cu  Cu2221    1.0  0.40059  0.50115  0.43472  1.0000
  Cu  Cu2222    1.0  0.31370  0.66552  0.39862  1.0000
  Cu  Cu2223    1.0  0.31370  0.50115  0.48195  1.0000
  Cu  Cu2224    1.0  0.40059  0.66552  0.35138  1.0000
  Cu  Cu2225    1.0  0.28571  0.50000  0.33333  1.0000
  Cu  Cu2226    1.0  0.28571  0.50000  0.41667  1.0000
  Cu  Cu2227    1.0  0.35714  0.58333  0.33333  1.0000
  Cu  Cu2228    1.0  0.35714  0.58333  0.41667  1.0000
  Cu  Cu2229    1.0  0.28571  0.52778  0.37500  1.0000
  Cu  Cu2230    1.0  0.28571  0.63888  0.45833  1.0000
  Cu  Cu2231    1.0  0.35714  0.61112  0.37500  1.0000
  Cu  Cu2232    1.0  0.35714  0.55555  0.45833  1.0000
  Cu  Cu2233    1.0  0.30000  0.58103  0.53333  1.0000
  Cu  Cu2234    1.0  0.41429  0.58563  0.63333  1.0000
  Cu  Cu2235    1.0  0.41429  0.58103  0.55000  1.0000
  Cu  Cu2236    1.0  0.30000  0.58563  0.61667  1.0000
  Cu  Cu2237    1.0  0.37143  0.66437  0.53333  1.0000
  Cu  Cu2238    1.0  0.34286  0.50230  0.63333  1.0000
  Cu  Cu2239    1.0  0.34286  0.66437  0.55000  1.0000
  Cu  Cu2240    1.0  0.37143  0.50230  0.61667  1.0000
  Cu  Cu2241    1.0  0.32916  0.58448  0.60138  1.0000
  Cu  Cu2242    1.0  0.38513  0.58218  0.56528  1.0000
  Cu  Cu2243    1.0  0.38513  0.58448  0.64862  1.0000
  Cu  Cu2244    1.0  0.32916  0.58218  0.51805  1.0000
  Cu  Cu2245    1.0  0.40059  0.50115  0.60138  1.0000
  Cu  Cu2246    1.0  0.31370  0.66552  0.56528  1.0000
  Cu  Cu2247    1.0  0.31370  0.50115  0.64862  1.0000
  Cu  Cu2248    1.0  0.40059  0.66552  0.51805  1.0000
  Cu  Cu2249    1.0  0.28571  0.50000  0.50000  1.0000
  Cu  Cu2250    1.0  0.28571  0.50000  0.58333  1.0000
  Cu  Cu2251    1.0  0.35714  0.58333  0.50000  1.0000
  Cu  Cu2252    1.0  0.35714  0.58333  0.58333  1.0000
  Cu  Cu2253    1.0  0.28571  0.52778  0.54167  1.0000
  Cu  Cu2254    1.0  0.28571  0.63888  0.62500  1.0000
  Cu  Cu2255    1.0  0.35714  0.61112  0.54167  1.0000
  Cu  Cu2256    1.0  0.35714  0.55555  0.62500  1.0000
  Cu  Cu2257    1.0  0.30000  0.58103  0.70000  1.0000
  Cu  Cu2258    1.0  0.41429  0.58563  0.80000  1.0000
  Cu  Cu2259    1.0  0.41429  0.58103  0.71667  1.0000
  Cu  Cu2260    1.0  0.30000  0.58563  0.78333  1.0000
  Cu  Cu2261    1.0  0.37143  0.66437  0.70000  1.0000
  Cu  Cu2262    1.0  0.34286  0.50230  0.80000  1.0000
  Cu  Cu2263    1.0  0.34286  0.66437  0.71667  1.0000
  Cu  Cu2264    1.0  0.37143  0.50230  0.78333  1.0000
  Cu  Cu2265    1.0  0.32916  0.58448  0.76805  1.0000
  Cu  Cu2266    1.0  0.38513  0.58218  0.73195  1.0000
  Cu  Cu2267    1.0  0.38513  0.58448  0.81528  1.0000
  Cu  Cu2268    1.0  0.32916  0.58218  0.68472  1.0000
  Cu  Cu2269    1.0  0.40059  0.50115  0.76805  1.0000
  Cu  Cu2270    1.0  0.31370  0.66552  0.73195  1.0000
  Cu  Cu2271    1.0  0.31370  0.50115  0.81528  1.0000
  Cu  Cu2272    1.0  0.40059  0.66552  0.68472  1.0000
  Cu  Cu2273    1.0  0.28571  0.50000  0.66667  1.0000
  Cu  Cu2274    1.0  0.28571  0.50000  0.75000  1.0000
  Cu  Cu2275    1.0  0.35714  0.58333  0.66667  1.0000
  Cu  Cu2276    1.0  0.35714  0.58333  0.75000  1.0000
  Cu  Cu2277    1.0  0.28571  0.52778  0.70833  1.0000
  Cu  Cu2278    1.0  0.28571  0.63888  0.79167  1.0000
  Cu  Cu2279    1.0  0.35714  0.61112  0.70833  1.0000
  Cu  Cu2280    1.0  0.35714  0.55555  0.79167  1.0000
  Cu  Cu2281    1.0  0.30000  0.58103  0.86667  1.0000
  Cu  Cu2282    1.0  0.41429  0.58563  0.96667  1.0000
  Cu  Cu2283    1.0  0.41429  0.58103  0.88333  1.0000
  Cu  Cu2284    1.0  0.30000  0.58563  0.95000  1.0000
  Cu  Cu2285    1.0  0.37143  0.66437  0.86667  1.0000
  Cu  Cu2286    1.0  0.34286  0.50230  0.96667  1.0000
  Cu  Cu2287    1.0  0.34286  0.66437  0.88333  1.0000
  Cu  Cu2288    1.0  0.37143  0.50230  0.95000  1.0000
  Cu  Cu2289    1.0  0.32916  0.58448  0.93472  1.0000
  Cu  Cu2290    1.0  0.38513  0.58218  0.89862  1.0000
  Cu  Cu2291    1.0  0.38513  0.58448  0.98195  1.0000
  Cu  Cu2292    1.0  0.32916  0.58218  0.85138  1.0000
  Cu  Cu2293    1.0  0.40059  0.50115  0.93472  1.0000
  Cu  Cu2294    1.0  0.31370  0.66552  0.89862  1.0000
  Cu  Cu2295    1.0  0.31370  0.50115  0.98195  1.0000
  Cu  Cu2296    1.0  0.40059  0.66552  0.85138  1.0000
  Cu  Cu2297    1.0  0.28571  0.50000  0.83333  1.0000
  Cu  Cu2298    1.0  0.28571  0.50000  0.91667  1.0000
  Cu  Cu2299    1.0  0.35714  0.58333  0.83333  1.0000
  Cu  Cu2300    1.0  0.35714  0.58333  0.91667  1.0000
  Cu  Cu2301    1.0  0.28571  0.52778  0.87500  1.0000
  Cu  Cu2302    1.0  0.28571  0.63888  0.95833  1.0000
  Cu  Cu2303    1.0  0.35714  0.61112  0.87500  1.0000
  Cu  Cu2304    1.0  0.35714  0.55555  0.95833  1.0000
  Cu  Cu2305    1.0  0.30000  0.74770  0.03333  1.0000
  Cu  Cu2306    1.0  0.41429  0.75230  0.13333  1.0000
  Cu  Cu2307    1.0  0.41429  0.74770  0.05000  1.0000
  Cu  Cu2308    1.0  0.30000  0.75230  0.11667  1.0000
  Cu  Cu2309    1.0  0.37143  0.83103  0.03333  1.0000
  Cu  Cu2310    1.0  0.34286  0.66897  0.13333  1.0000
  Cu  Cu2311    1.0  0.34286  0.83103  0.05000  1.0000
  Cu  Cu2312    1.0  0.37143  0.66897  0.11667  1.0000
  Cu  Cu2313    1.0  0.32916  0.75115  0.10138  1.0000
  Cu  Cu2314    1.0  0.38513  0.74885  0.06528  1.0000
  Cu  Cu2315    1.0  0.38513  0.75115  0.14862  1.0000
  Cu  Cu2316    1.0  0.32916  0.74885  0.01805  1.0000
  Cu  Cu2317    1.0  0.40059  0.66782  0.10138  1.0000
  Cu  Cu2318    1.0  0.31370  0.83218  0.06528  1.0000
  Cu  Cu2319    1.0  0.31370  0.66782  0.14862  1.0000
  Cu  Cu2320    1.0  0.40059  0.83218  0.01805  1.0000
  Cu  Cu2321    1.0  0.28571  0.66667  0.00000  1.0000
  Cu  Cu2322    1.0  0.28571  0.66667  0.08333  1.0000
  Cu  Cu2323    1.0  0.35714  0.75000  0.00000  1.0000
  Cu  Cu2324    1.0  0.35714  0.75000  0.08333  1.0000
  Cu  Cu2325    1.0  0.28571  0.69445  0.04167  1.0000
  Cu  Cu2326    1.0  0.28571  0.80555  0.12500  1.0000
  Cu  Cu2327    1.0  0.35714  0.77778  0.04167  1.0000
  Cu  Cu2328    1.0  0.35714  0.72222  0.12500  1.0000
  Cu  Cu2329    1.0  0.30000  0.74770  0.20000  1.0000
  Cu  Cu2330    1.0  0.41429  0.75230  0.30000  1.0000
  Cu  Cu2331    1.0  0.41429  0.74770  0.21667  1.0000
  Cu  Cu2332    1.0  0.30000  0.75230  0.28333  1.0000
  Cu  Cu2333    1.0  0.37143  0.83103  0.20000  1.0000
  Cu  Cu2334    1.0  0.34286  0.66897  0.30000  1.0000
  Cu  Cu2335    1.0  0.34286  0.83103  0.21667  1.0000
  Cu  Cu2336    1.0  0.37143  0.66897  0.28333  1.0000
  Cu  Cu2337    1.0  0.32916  0.75115  0.26805  1.0000
  Cu  Cu2338    1.0  0.38513  0.74885  0.23195  1.0000
  Cu  Cu2339    1.0  0.38513  0.75115  0.31528  1.0000
  Cu  Cu2340    1.0  0.32916  0.74885  0.18472  1.0000
  Cu  Cu2341    1.0  0.40059  0.66782  0.26805  1.0000
  Cu  Cu2342    1.0  0.31370  0.83218  0.23195  1.0000
  Cu  Cu2343    1.0  0.31370  0.66782  0.31528  1.0000
  Cu  Cu2344    1.0  0.40059  0.83218  0.18472  1.0000
  Cu  Cu2345    1.0  0.28571  0.66667  0.16667  1.0000
  Cu  Cu2346    1.0  0.28571  0.66667  0.25000  1.0000
  Cu  Cu2347    1.0  0.35714  0.75000  0.16667  1.0000
  Cu  Cu2348    1.0  0.35714  0.75000  0.25000  1.0000
  Cu  Cu2349    1.0  0.28571  0.69445  0.20833  1.0000
  Cu  Cu2350    1.0  0.28571  0.80555  0.29167  1.0000
  Cu  Cu2351    1.0  0.35714  0.77778  0.20833  1.0000
  Cu  Cu2352    1.0  0.35714  0.72222  0.29167  1.0000
  Cu  Cu2353    1.0  0.30000  0.74770  0.36667  1.0000
  Cu  Cu2354    1.0  0.41429  0.75230  0.46667  1.0000
  Cu  Cu2355    1.0  0.41429  0.74770  0.38333  1.0000
  Cu  Cu2356    1.0  0.30000  0.75230  0.45000  1.0000
  Cu  Cu2357    1.0  0.37143  0.83103  0.36667  1.0000
  Cu  Cu2358    1.0  0.34286  0.66897  0.46667  1.0000
  Cu  Cu2359    1.0  0.34286  0.83103  0.38333  1.0000
  Cu  Cu2360    1.0  0.37143  0.66897  0.45000  1.0000
  Cu  Cu2361    1.0  0.32916  0.75115  0.43472  1.0000
  Cu  Cu2362    1.0  0.38513  0.74885  0.39862  1.0000
  Cu  Cu2363    1.0  0.38513  0.75115  0.48195  1.0000
  Cu  Cu2364    1.0  0.32916  0.74885  0.35138  1.0000
  Cu  Cu2365    1.0  0.40059  0.66782  0.43472  1.0000
  Cu  Cu2366    1.0  0.31370  0.83218  0.39862  1.0000
  Cu  Cu2367    1.0  0.31370  0.66782  0.48195  1.0000
  Cu  Cu2368    1.0  0.40059  0.83218  0.35138  1.0000
  Cu  Cu2369    1.0  0.28571  0.66667  0.33333  1.0000
  Cu  Cu2370    1.0  0.28571  0.66667  0.41667  1.0000
  Cu  Cu2371    1.0  0.35714  0.75000  0.33333  1.0000
  Cu  Cu2372    1.0  0.35714  0.75000  0.41667  1.0000
  Cu  Cu2373    1.0  0.28571  0.69445  0.37500  1.0000
  Cu  Cu2374    1.0  0.28571  0.80555  0.45833  1.0000
  Cu  Cu2375    1.0  0.35714  0.77778  0.37500  1.0000
  Cu  Cu2376    1.0  0.35714  0.72222  0.45833  1.0000
  Cu  Cu2377    1.0  0.30000  0.74770  0.53333  1.0000
  Cu  Cu2378    1.0  0.41429  0.75230  0.63333  1.0000
  Cu  Cu2379    1.0  0.41429  0.74770  0.55000  1.0000
  Cu  Cu2380    1.0  0.30000  0.75230  0.61667  1.0000
  Cu  Cu2381    1.0  0.37143  0.83103  0.53333  1.0000
  Cu  Cu2382    1.0  0.34286  0.66897  0.63333  1.0000
  Cu  Cu2383    1.0  0.34286  0.83103  0.55000  1.0000
  Cu  Cu2384    1.0  0.37143  0.66897  0.61667  1.0000
  Cu  Cu2385    1.0  0.32916  0.75115  0.60138  1.0000
  Cu  Cu2386    1.0  0.38513  0.74885  0.56528  1.0000
  Cu  Cu2387    1.0  0.38513  0.75115  0.64862  1.0000
  Cu  Cu2388    1.0  0.32916  0.74885  0.51805  1.0000
  Cu  Cu2389    1.0  0.40059  0.66782  0.60138  1.0000
  Cu  Cu2390    1.0  0.31370  0.83218  0.56528  1.0000
  Cu  Cu2391    1.0  0.31370  0.66782  0.64862  1.0000
  Cu  Cu2392    1.0  0.40059  0.83218  0.51805  1.0000
  Cu  Cu2393    1.0  0.28571  0.66667  0.50000  1.0000
  Cu  Cu2394    1.0  0.28571  0.66667  0.58333  1.0000
  Cu  Cu2395    1.0  0.35714  0.75000  0.50000  1.0000
  Cu  Cu2396    1.0  0.35714  0.75000  0.58333  1.0000
  Cu  Cu2397    1.0  0.28571  0.69445  0.54167  1.0000
  Cu  Cu2398    1.0  0.28571  0.80555  0.62500  1.0000
  Cu  Cu2399    1.0  0.35714  0.77778  0.54167  1.0000
  Cu  Cu2400    1.0  0.35714  0.72222  0.62500  1.0000
  Cu  Cu2401    1.0  0.30000  0.74770  0.70000  1.0000
  Cu  Cu2402    1.0  0.41429  0.75230  0.80000  1.0000
  Cu  Cu2403    1.0  0.41429  0.74770  0.71667  1.0000
  Cu  Cu2404    1.0  0.30000  0.75230  0.78333  1.0000
  Cu  Cu2405    1.0  0.37143  0.83103  0.70000  1.0000
  Cu  Cu2406    1.0  0.34286  0.66897  0.80000  1.0000
  Cu  Cu2407    1.0  0.34286  0.83103  0.71667  1.0000
  Cu  Cu2408    1.0  0.37143  0.66897  0.78333  1.0000
  Cu  Cu2409    1.0  0.32916  0.75115  0.76805  1.0000
  Cu  Cu2410    1.0  0.38513  0.74885  0.73195  1.0000
  Cu  Cu2411    1.0  0.38513  0.75115  0.81528  1.0000
  Cu  Cu2412    1.0  0.32916  0.74885  0.68472  1.0000
  Cu  Cu2413    1.0  0.40059  0.66782  0.76805  1.0000
  Cu  Cu2414    1.0  0.31370  0.83218  0.73195  1.0000
  Cu  Cu2415    1.0  0.31370  0.66782  0.81528  1.0000
  Cu  Cu2416    1.0  0.40059  0.83218  0.68472  1.0000
  Cu  Cu2417    1.0  0.28571  0.66667  0.66667  1.0000
  Cu  Cu2418    1.0  0.28571  0.66667  0.75000  1.0000
  Cu  Cu2419    1.0  0.35714  0.75000  0.66667  1.0000
  Cu  Cu2420    1.0  0.35714  0.75000  0.75000  1.0000
  Cu  Cu2421    1.0  0.28571  0.69445  0.70833  1.0000
  Cu  Cu2422    1.0  0.28571  0.80555  0.79167  1.0000
  Cu  Cu2423    1.0  0.35714  0.77778  0.70833  1.0000
  Cu  Cu2424    1.0  0.35714  0.72222  0.79167  1.0000
  Cu  Cu2425    1.0  0.30000  0.74770  0.86667  1.0000
  Cu  Cu2426    1.0  0.41429  0.75230  0.96667  1.0000
  Cu  Cu2427    1.0  0.41429  0.74770  0.88333  1.0000
  Cu  Cu2428    1.0  0.30000  0.75230  0.95000  1.0000
  Cu  Cu2429    1.0  0.37143  0.83103  0.86667  1.0000
  Cu  Cu2430    1.0  0.34286  0.66897  0.96667  1.0000
  Cu  Cu2431    1.0  0.34286  0.83103  0.88333  1.0000
  Cu  Cu2432    1.0  0.37143  0.66897  0.95000  1.0000
  Cu  Cu2433    1.0  0.32916  0.75115  0.93472  1.0000
  Cu  Cu2434    1.0  0.38513  0.74885  0.89862  1.0000
  Cu  Cu2435    1.0  0.38513  0.75115  0.98195  1.0000
  Cu  Cu2436    1.0  0.32916  0.74885  0.85138  1.0000
  Cu  Cu2437    1.0  0.40059  0.66782  0.93472  1.0000
  Cu  Cu2438    1.0  0.31370  0.83218  0.89862  1.0000
  Cu  Cu2439    1.0  0.31370  0.66782  0.98195  1.0000
  Cu  Cu2440    1.0  0.40059  0.83218  0.85138  1.0000
  Cu  Cu2441    1.0  0.28571  0.66667  0.83333  1.0000
  Cu  Cu2442    1.0  0.28571  0.66667  0.91667  1.0000
  Cu  Cu2443    1.0  0.35714  0.75000  0.83333  1.0000
  Cu  Cu2444    1.0  0.35714  0.75000  0.91667  1.0000
  Cu  Cu2445    1.0  0.28571  0.69445  0.87500  1.0000
  Cu  Cu2446    1.0  0.28571  0.80555  0.95833  1.0000
  Cu  Cu2447    1.0  0.35714  0.77778  0.87500  1.0000
  Cu  Cu2448    1.0  0.35714  0.72222  0.95833  1.0000
  Cu  Cu2449    1.0  0.30000  0.91437  0.03333  1.0000
  Cu  Cu2450    1.0  0.41429  0.91897  0.13333  1.0000
  Cu  Cu2451    1.0  0.41429  0.91437  0.05000  1.0000
  Cu  Cu2452    1.0  0.30000  0.91897  0.11667  1.0000
  Cu  Cu2453    1.0  0.37143  0.99770  0.03333  1.0000
  Cu  Cu2454    1.0  0.34286  0.83563  0.13333  1.0000
  Cu  Cu2455    1.0  0.34286  0.99770  0.05000  1.0000
  Cu  Cu2456    1.0  0.37143  0.83563  0.11667  1.0000
  Cu  Cu2457    1.0  0.32916  0.91782  0.10138  1.0000
  Cu  Cu2458    1.0  0.38513  0.91552  0.06528  1.0000
  Cu  Cu2459    1.0  0.38513  0.91782  0.14862  1.0000
  Cu  Cu2460    1.0  0.32916  0.91552  0.01805  1.0000
  Cu  Cu2461    1.0  0.40059  0.83448  0.10138  1.0000
  Cu  Cu2462    1.0  0.31370  0.99885  0.06528  1.0000
  Cu  Cu2463    1.0  0.31370  0.83448  0.14862  1.0000
  Cu  Cu2464    1.0  0.40059  0.99885  0.01805  1.0000
  Cu  Cu2465    1.0  0.28571  0.83333  0.00000  1.0000
  Cu  Cu2466    1.0  0.28571  0.83333  0.08333  1.0000
  Cu  Cu2467    1.0  0.35714  0.91667  0.00000  1.0000
  Cu  Cu2468    1.0  0.35714  0.91667  0.08333  1.0000
  Cu  Cu2469    1.0  0.28571  0.86112  0.04167  1.0000
  Cu  Cu2470    1.0  0.28571  0.97222  0.12500  1.0000
  Cu  Cu2471    1.0  0.35714  0.94445  0.04167  1.0000
  Cu  Cu2472    1.0  0.35714  0.88888  0.12500  1.0000
  Cu  Cu2473    1.0  0.30000  0.91437  0.20000  1.0000
  Cu  Cu2474    1.0  0.41429  0.91897  0.30000  1.0000
  Cu  Cu2475    1.0  0.41429  0.91437  0.21667  1.0000
  Cu  Cu2476    1.0  0.30000  0.91897  0.28333  1.0000
  Cu  Cu2477    1.0  0.37143  0.99770  0.20000  1.0000
  Cu  Cu2478    1.0  0.34286  0.83563  0.30000  1.0000
  Cu  Cu2479    1.0  0.34286  0.99770  0.21667  1.0000
  Cu  Cu2480    1.0  0.37143  0.83563  0.28333  1.0000
  Cu  Cu2481    1.0  0.32916  0.91782  0.26805  1.0000
  Cu  Cu2482    1.0  0.38513  0.91552  0.23195  1.0000
  Cu  Cu2483    1.0  0.38513  0.91782  0.31528  1.0000
  Cu  Cu2484    1.0  0.32916  0.91552  0.18472  1.0000
  Cu  Cu2485    1.0  0.40059  0.83448  0.26805  1.0000
  Cu  Cu2486    1.0  0.31370  0.99885  0.23195  1.0000
  Cu  Cu2487    1.0  0.31370  0.83448  0.31528  1.0000
  Cu  Cu2488    1.0  0.40059  0.99885  0.18472  1.0000
  Cu  Cu2489    1.0  0.28571  0.83333  0.16667  1.0000
  Cu  Cu2490    1.0  0.28571  0.83333  0.25000  1.0000
  Cu  Cu2491    1.0  0.35714  0.91667  0.16667  1.0000
  Cu  Cu2492    1.0  0.35714  0.91667  0.25000  1.0000
  Cu  Cu2493    1.0  0.28571  0.86112  0.20833  1.0000
  Cu  Cu2494    1.0  0.28571  0.97222  0.29167  1.0000
  Cu  Cu2495    1.0  0.35714  0.94445  0.20833  1.0000
  Cu  Cu2496    1.0  0.35714  0.88888  0.29167  1.0000
  Cu  Cu2497    1.0  0.30000  0.91437  0.36667  1.0000
  Cu  Cu2498    1.0  0.41429  0.91897  0.46667  1.0000
  Cu  Cu2499    1.0  0.41429  0.91437  0.38333  1.0000
  Cu  Cu2500    1.0  0.30000  0.91897  0.45000  1.0000
  Cu  Cu2501    1.0  0.37143  0.99770  0.36667  1.0000
  Cu  Cu2502    1.0  0.34286  0.83563  0.46667  1.0000
  Cu  Cu2503    1.0  0.34286  0.99770  0.38333  1.0000
  Cu  Cu2504    1.0  0.37143  0.83563  0.45000  1.0000
  Cu  Cu2505    1.0  0.32916  0.91782  0.43472  1.0000
  Cu  Cu2506    1.0  0.38513  0.91552  0.39862  1.0000
  Cu  Cu2507    1.0  0.38513  0.91782  0.48195  1.0000
  Cu  Cu2508    1.0  0.32916  0.91552  0.35138  1.0000
  Cu  Cu2509    1.0  0.40059  0.83448  0.43472  1.0000
  Cu  Cu2510    1.0  0.31370  0.99885  0.39862  1.0000
  Cu  Cu2511    1.0  0.31370  0.83448  0.48195  1.0000
  Cu  Cu2512    1.0  0.40059  0.99885  0.35138  1.0000
  Cu  Cu2513    1.0  0.28571  0.83333  0.33333  1.0000
  Cu  Cu2514    1.0  0.28571  0.83333  0.41667  1.0000
  Cu  Cu2515    1.0  0.35714  0.91667  0.33333  1.0000
  Cu  Cu2516    1.0  0.35714  0.91667  0.41667  1.0000
  Cu  Cu2517    1.0  0.28571  0.86112  0.37500  1.0000
  Cu  Cu2518    1.0  0.28571  0.97222  0.45833  1.0000
  Cu  Cu2519    1.0  0.35714  0.94445  0.37500  1.0000
  Cu  Cu2520    1.0  0.35714  0.88888  0.45833  1.0000
  Cu  Cu2521    1.0  0.30000  0.91437  0.53333  1.0000
  Cu  Cu2522    1.0  0.41429  0.91897  0.63333  1.0000
  Cu  Cu2523    1.0  0.41429  0.91437  0.55000  1.0000
  Cu  Cu2524    1.0  0.30000  0.91897  0.61667  1.0000
  Cu  Cu2525    1.0  0.37143  0.99770  0.53333  1.0000
  Cu  Cu2526    1.0  0.34286  0.83563  0.63333  1.0000
  Cu  Cu2527    1.0  0.34286  0.99770  0.55000  1.0000
  Cu  Cu2528    1.0  0.37143  0.83563  0.61667  1.0000
  Cu  Cu2529    1.0  0.32916  0.91782  0.60138  1.0000
  Cu  Cu2530    1.0  0.38513  0.91552  0.56528  1.0000
  Cu  Cu2531    1.0  0.38513  0.91782  0.64862  1.0000
  Cu  Cu2532    1.0  0.32916  0.91552  0.51805  1.0000
  Cu  Cu2533    1.0  0.40059  0.83448  0.60138  1.0000
  Cu  Cu2534    1.0  0.31370  0.99885  0.56528  1.0000
  Cu  Cu2535    1.0  0.31370  0.83448  0.64862  1.0000
  Cu  Cu2536    1.0  0.40059  0.99885  0.51805  1.0000
  Cu  Cu2537    1.0  0.28571  0.83333  0.50000  1.0000
  Cu  Cu2538    1.0  0.28571  0.83333  0.58333  1.0000
  Cu  Cu2539    1.0  0.35714  0.91667  0.50000  1.0000
  Cu  Cu2540    1.0  0.35714  0.91667  0.58333  1.0000
  Cu  Cu2541    1.0  0.28571  0.86112  0.54167  1.0000
  Cu  Cu2542    1.0  0.28571  0.97222  0.62500  1.0000
  Cu  Cu2543    1.0  0.35714  0.94445  0.54167  1.0000
  Cu  Cu2544    1.0  0.35714  0.88888  0.62500  1.0000
  Cu  Cu2545    1.0  0.30000  0.91437  0.70000  1.0000
  Cu  Cu2546    1.0  0.41429  0.91897  0.80000  1.0000
  Cu  Cu2547    1.0  0.41429  0.91437  0.71667  1.0000
  Cu  Cu2548    1.0  0.30000  0.91897  0.78333  1.0000
  Cu  Cu2549    1.0  0.37143  0.99770  0.70000  1.0000
  Cu  Cu2550    1.0  0.34286  0.83563  0.80000  1.0000
  Cu  Cu2551    1.0  0.34286  0.99770  0.71667  1.0000
  Cu  Cu2552    1.0  0.37143  0.83563  0.78333  1.0000
  Cu  Cu2553    1.0  0.32916  0.91782  0.76805  1.0000
  Cu  Cu2554    1.0  0.38513  0.91552  0.73195  1.0000
  Cu  Cu2555    1.0  0.38513  0.91782  0.81528  1.0000
  Cu  Cu2556    1.0  0.32916  0.91552  0.68472  1.0000
  Cu  Cu2557    1.0  0.40059  0.83448  0.76805  1.0000
  Cu  Cu2558    1.0  0.31370  0.99885  0.73195  1.0000
  Cu  Cu2559    1.0  0.31370  0.83448  0.81528  1.0000
  Cu  Cu2560    1.0  0.40059  0.99885  0.68472  1.0000
  Cu  Cu2561    1.0  0.28571  0.83333  0.66667  1.0000
  Cu  Cu2562    1.0  0.28571  0.83333  0.75000  1.0000
  Cu  Cu2563    1.0  0.35714  0.91667  0.66667  1.0000
  Cu  Cu2564    1.0  0.35714  0.91667  0.75000  1.0000
  Cu  Cu2565    1.0  0.28571  0.86112  0.70833  1.0000
  Cu  Cu2566    1.0  0.28571  0.97222  0.79167  1.0000
  Cu  Cu2567    1.0  0.35714  0.94445  0.70833  1.0000
  Cu  Cu2568    1.0  0.35714  0.88888  0.79167  1.0000
  Cu  Cu2569    1.0  0.30000  0.91437  0.86667  1.0000
  Cu  Cu2570    1.0  0.41429  0.91897  0.96667  1.0000
  Cu  Cu2571    1.0  0.41429  0.91437  0.88333  1.0000
  Cu  Cu2572    1.0  0.30000  0.91897  0.95000  1.0000
  Cu  Cu2573    1.0  0.37143  0.99770  0.86667  1.0000
  Cu  Cu2574    1.0  0.34286  0.83563  0.96667  1.0000
  Cu  Cu2575    1.0  0.34286  0.99770  0.88333  1.0000
  Cu  Cu2576    1.0  0.37143  0.83563  0.95000  1.0000
  Cu  Cu2577    1.0  0.32916  0.91782  0.93472  1.0000
  Cu  Cu2578    1.0  0.38513  0.91552  0.89862  1.0000
  Cu  Cu2579    1.0  0.38513  0.91782  0.98195  1.0000
  Cu  Cu2580    1.0  0.32916  0.91552  0.85138  1.0000
  Cu  Cu2581    1.0  0.40059  0.83448  0.93472  1.0000
  Cu  Cu2582    1.0  0.31370  0.99885  0.89862  1.0000
  Cu  Cu2583    1.0  0.31370  0.83448  0.98195  1.0000
  Cu  Cu2584    1.0  0.40059  0.99885  0.85138  1.0000
  Cu  Cu2585    1.0  0.28571  0.83333  0.83333  1.0000
  Cu  Cu2586    1.0  0.28571  0.83333  0.91667  1.0000
  Cu  Cu2587    1.0  0.35714  0.91667  0.83333  1.0000
  Cu  Cu2588    1.0  0.35714  0.91667  0.91667  1.0000
  Cu  Cu2589    1.0  0.28571  0.86112  0.87500  1.0000
  Cu  Cu2590    1.0  0.28571  0.97222  0.95833  1.0000
  Cu  Cu2591    1.0  0.35714  0.94445  0.87500  1.0000
  Cu  Cu2592    1.0  0.35714  0.88888  0.95833  1.0000
  Cu  Cu2593    1.0  0.44286  0.08103  0.03333  1.0000
  Cu  Cu2594    1.0  0.55714  0.08563  0.13333  1.0000
  Cu  Cu2595    1.0  0.55714  0.08103  0.05000  1.0000
  Cu  Cu2596    1.0  0.44286  0.08563  0.11667  1.0000
  Cu  Cu2597    1.0  0.51429  0.16437  0.03333  1.0000
  Cu  Cu2598    1.0  0.48571  0.00230  0.13333  1.0000
  Cu  Cu2599    1.0  0.48571  0.16437  0.05000  1.0000
  Cu  Cu2600    1.0  0.51429  0.00230  0.11667  1.0000
  Cu  Cu2601    1.0  0.47201  0.08448  0.10138  1.0000
  Cu  Cu2602    1.0  0.52799  0.08218  0.06528  1.0000
  Cu  Cu2603    1.0  0.52799  0.08448  0.14862  1.0000
  Cu  Cu2604    1.0  0.47201  0.08218  0.01805  1.0000
  Cu  Cu2605    1.0  0.54344  0.00115  0.10138  1.0000
  Cu  Cu2606    1.0  0.45656  0.16552  0.06528  1.0000
  Cu  Cu2607    1.0  0.45656  0.00115  0.14862  1.0000
  Cu  Cu2608    1.0  0.54344  0.16552  0.01805  1.0000
  Cu  Cu2609    1.0  0.42857  0.00000  0.00000  1.0000
  Cu  Cu2610    1.0  0.42857  0.00000  0.08333  1.0000
  Cu  Cu2611    1.0  0.50000  0.08333  0.00000  1.0000
  Cu  Cu2612    1.0  0.50000  0.08333  0.08333  1.0000
  Cu  Cu2613    1.0  0.42857  0.02778  0.04167  1.0000
  Cu  Cu2614    1.0  0.42857  0.13888  0.12500  1.0000
  Cu  Cu2615    1.0  0.50000  0.11112  0.04167  1.0000
  Cu  Cu2616    1.0  0.50000  0.05555  0.12500  1.0000
  Cu  Cu2617    1.0  0.44286  0.08103  0.20000  1.0000
  Cu  Cu2618    1.0  0.55714  0.08563  0.30000  1.0000
  Cu  Cu2619    1.0  0.55714  0.08103  0.21667  1.0000
  Cu  Cu2620    1.0  0.44286  0.08563  0.28333  1.0000
  Cu  Cu2621    1.0  0.51429  0.16437  0.20000  1.0000
  Cu  Cu2622    1.0  0.48571  0.00230  0.30000  1.0000
  Cu  Cu2623    1.0  0.48571  0.16437  0.21667  1.0000
  Cu  Cu2624    1.0  0.51429  0.00230  0.28333  1.0000
  Cu  Cu2625    1.0  0.47201  0.08448  0.26805  1.0000
  Cu  Cu2626    1.0  0.52799  0.08218  0.23195  1.0000
  Cu  Cu2627    1.0  0.52799  0.08448  0.31528  1.0000
  Cu  Cu2628    1.0  0.47201  0.08218  0.18472  1.0000
  Cu  Cu2629    1.0  0.54344  0.00115  0.26805  1.0000
  Cu  Cu2630    1.0  0.45656  0.16552  0.23195  1.0000
  Cu  Cu2631    1.0  0.45656  0.00115  0.31528  1.0000
  Cu  Cu2632    1.0  0.54344  0.16552  0.18472  1.0000
  Cu  Cu2633    1.0  0.42857  0.00000  0.16667  1.0000
  Cu  Cu2634    1.0  0.42857  0.00000  0.25000  1.0000
  Cu  Cu2635    1.0  0.50000  0.08333  0.16667  1.0000
  Cu  Cu2636    1.0  0.50000  0.08333  0.25000  1.0000
  Cu  Cu2637    1.0  0.42857  0.02778  0.20833  1.0000
  Cu  Cu2638    1.0  0.42857  0.13888  0.29167  1.0000
  Cu  Cu2639    1.0  0.50000  0.11112  0.20833  1.0000
  Cu  Cu2640    1.0  0.50000  0.05555  0.29167  1.0000
  Cu  Cu2641    1.0  0.44286  0.08103  0.36667  1.0000
  Cu  Cu2642    1.0  0.55714  0.08563  0.46667  1.0000
  Cu  Cu2643    1.0  0.55714  0.08103  0.38333  1.0000
  Cu  Cu2644    1.0  0.44286  0.08563  0.45000  1.0000
  Cu  Cu2645    1.0  0.51429  0.16437  0.36667  1.0000
  Cu  Cu2646    1.0  0.48571  0.00230  0.46667  1.0000
  Cu  Cu2647    1.0  0.48571  0.16437  0.38333  1.0000
  Cu  Cu2648    1.0  0.51429  0.00230  0.45000  1.0000
  Cu  Cu2649    1.0  0.47201  0.08448  0.43472  1.0000
  Cu  Cu2650    1.0  0.52799  0.08218  0.39862  1.0000
  Cu  Cu2651    1.0  0.52799  0.08448  0.48195  1.0000
  Cu  Cu2652    1.0  0.47201  0.08218  0.35138  1.0000
  Cu  Cu2653    1.0  0.54344  0.00115  0.43472  1.0000
  Cu  Cu2654    1.0  0.45656  0.16552  0.39862  1.0000
  Cu  Cu2655    1.0  0.45656  0.00115  0.48195  1.0000
  Cu  Cu2656    1.0  0.54344  0.16552  0.35138  1.0000
  Cu  Cu2657    1.0  0.42857  0.00000  0.33333  1.0000
  Cu  Cu2658    1.0  0.42857  0.00000  0.41667  1.0000
  Cu  Cu2659    1.0  0.50000  0.08333  0.33333  1.0000
  Cu  Cu2660    1.0  0.50000  0.08333  0.41667  1.0000
  Cu  Cu2661    1.0  0.42857  0.02778  0.37500  1.0000
  Cu  Cu2662    1.0  0.42857  0.13888  0.45833  1.0000
  Cu  Cu2663    1.0  0.50000  0.11112  0.37500  1.0000
  Cu  Cu2664    1.0  0.50000  0.05555  0.45833  1.0000
  Cu  Cu2665    1.0  0.44286  0.08103  0.53333  1.0000
  Cu  Cu2666    1.0  0.55714  0.08563  0.63333  1.0000
  Cu  Cu2667    1.0  0.55714  0.08103  0.55000  1.0000
  Cu  Cu2668    1.0  0.44286  0.08563  0.61667  1.0000
  Cu  Cu2669    1.0  0.51429  0.16437  0.53333  1.0000
  Cu  Cu2670    1.0  0.48571  0.00230  0.63333  1.0000
  Cu  Cu2671    1.0  0.48571  0.16437  0.55000  1.0000
  Cu  Cu2672    1.0  0.51429  0.00230  0.61667  1.0000
  Cu  Cu2673    1.0  0.47201  0.08448  0.60138  1.0000
  Cu  Cu2674    1.0  0.52799  0.08218  0.56528  1.0000
  Cu  Cu2675    1.0  0.52799  0.08448  0.64862  1.0000
  Cu  Cu2676    1.0  0.47201  0.08218  0.51805  1.0000
  Cu  Cu2677    1.0  0.54344  0.00115  0.60138  1.0000
  Cu  Cu2678    1.0  0.45656  0.16552  0.56528  1.0000
  Cu  Cu2679    1.0  0.45656  0.00115  0.64862  1.0000
  Cu  Cu2680    1.0  0.54344  0.16552  0.51805  1.0000
  Cu  Cu2681    1.0  0.42857  0.00000  0.50000  1.0000
  Cu  Cu2682    1.0  0.42857  0.00000  0.58333  1.0000
  Cu  Cu2683    1.0  0.50000  0.08333  0.50000  1.0000
  Cu  Cu2684    1.0  0.50000  0.08333  0.58333  1.0000
  Cu  Cu2685    1.0  0.42857  0.02778  0.54167  1.0000
  Cu  Cu2686    1.0  0.42857  0.13888  0.62500  1.0000
  Cu  Cu2687    1.0  0.50000  0.11112  0.54167  1.0000
  Cu  Cu2688    1.0  0.50000  0.05555  0.62500  1.0000
  Cu  Cu2689    1.0  0.44286  0.08103  0.70000  1.0000
  Cu  Cu2690    1.0  0.55714  0.08563  0.80000  1.0000
  Cu  Cu2691    1.0  0.55714  0.08103  0.71667  1.0000
  Cu  Cu2692    1.0  0.44286  0.08563  0.78333  1.0000
  Cu  Cu2693    1.0  0.51429  0.16437  0.70000  1.0000
  Cu  Cu2694    1.0  0.48571  0.00230  0.80000  1.0000
  Cu  Cu2695    1.0  0.48571  0.16437  0.71667  1.0000
  Cu  Cu2696    1.0  0.51429  0.00230  0.78333  1.0000
  Cu  Cu2697    1.0  0.47201  0.08448  0.76805  1.0000
  Cu  Cu2698    1.0  0.52799  0.08218  0.73195  1.0000
  Cu  Cu2699    1.0  0.52799  0.08448  0.81528  1.0000
  Cu  Cu2700    1.0  0.47201  0.08218  0.68472  1.0000
  Cu  Cu2701    1.0  0.54344  0.00115  0.76805  1.0000
  Cu  Cu2702    1.0  0.45656  0.16552  0.73195  1.0000
  Cu  Cu2703    1.0  0.45656  0.00115  0.81528  1.0000
  Cu  Cu2704    1.0  0.54344  0.16552  0.68472  1.0000
  Cu  Cu2705    1.0  0.42857  0.00000  0.66667  1.0000
  Cu  Cu2706    1.0  0.42857  0.00000  0.75000  1.0000
  Cu  Cu2707    1.0  0.50000  0.08333  0.66667  1.0000
  Cu  Cu2708    1.0  0.50000  0.08333  0.75000  1.0000
  Cu  Cu2709    1.0  0.42857  0.02778  0.70833  1.0000
  Cu  Cu2710    1.0  0.42857  0.13888  0.79167  1.0000
  Cu  Cu2711    1.0  0.50000  0.11112  0.70833  1.0000
  Cu  Cu2712    1.0  0.50000  0.05555  0.79167  1.0000
  Cu  Cu2713    1.0  0.44286  0.08103  0.86667  1.0000
  Cu  Cu2714    1.0  0.55714  0.08563  0.96667  1.0000
  Cu  Cu2715    1.0  0.55714  0.08103  0.88333  1.0000
  Cu  Cu2716    1.0  0.44286  0.08563  0.95000  1.0000
  Cu  Cu2717    1.0  0.51429  0.16437  0.86667  1.0000
  Cu  Cu2718    1.0  0.48571  0.00230  0.96667  1.0000
  Cu  Cu2719    1.0  0.48571  0.16437  0.88333  1.0000
  Cu  Cu2720    1.0  0.51429  0.00230  0.95000  1.0000
  Cu  Cu2721    1.0  0.47201  0.08448  0.93472  1.0000
  Cu  Cu2722    1.0  0.52799  0.08218  0.89862  1.0000
  Cu  Cu2723    1.0  0.52799  0.08448  0.98195  1.0000
  Cu  Cu2724    1.0  0.47201  0.08218  0.85138  1.0000
  Cu  Cu2725    1.0  0.54344  0.00115  0.93472  1.0000
  Cu  Cu2726    1.0  0.45656  0.16552  0.89862  1.0000
  Cu  Cu2727    1.0  0.45656  0.00115  0.98195  1.0000
  Cu  Cu2728    1.0  0.54344  0.16552  0.85138  1.0000
  Cu  Cu2729    1.0  0.42857  0.00000  0.83333  1.0000
  Cu  Cu2730    1.0  0.42857  0.00000  0.91667  1.0000
  Cu  Cu2731    1.0  0.50000  0.08333  0.83333  1.0000
  Cu  Cu2732    1.0  0.50000  0.08333  0.91667  1.0000
  Cu  Cu2733    1.0  0.42857  0.02778  0.87500  1.0000
  Cu  Cu2734    1.0  0.42857  0.13888  0.95833  1.0000
  Cu  Cu2735    1.0  0.50000  0.11112  0.87500  1.0000
  Cu  Cu2736    1.0  0.50000  0.05555  0.95833  1.0000
  Cu  Cu2737    1.0  0.44286  0.24770  0.03333  1.0000
  Cu  Cu2738    1.0  0.55714  0.25230  0.13333  1.0000
  Cu  Cu2739    1.0  0.55714  0.24770  0.05000  1.0000
  Cu  Cu2740    1.0  0.44286  0.25230  0.11667  1.0000
  Cu  Cu2741    1.0  0.51429  0.33103  0.03333  1.0000
  Cu  Cu2742    1.0  0.48571  0.16897  0.13333  1.0000
  Cu  Cu2743    1.0  0.48571  0.33103  0.05000  1.0000
  Cu  Cu2744    1.0  0.51429  0.16897  0.11667  1.0000
  Cu  Cu2745    1.0  0.47201  0.25115  0.10138  1.0000
  Cu  Cu2746    1.0  0.52799  0.24885  0.06528  1.0000
  Cu  Cu2747    1.0  0.52799  0.25115  0.14862  1.0000
  Cu  Cu2748    1.0  0.47201  0.24885  0.01805  1.0000
  Cu  Cu2749    1.0  0.54344  0.16782  0.10138  1.0000
  Cu  Cu2750    1.0  0.45656  0.33218  0.06528  1.0000
  Cu  Cu2751    1.0  0.45656  0.16782  0.14862  1.0000
  Cu  Cu2752    1.0  0.54344  0.33218  0.01805  1.0000
  Cu  Cu2753    1.0  0.42857  0.16667  0.00000  1.0000
  Cu  Cu2754    1.0  0.42857  0.16667  0.08333  1.0000
  Cu  Cu2755    1.0  0.50000  0.25000  0.00000  1.0000
  Cu  Cu2756    1.0  0.50000  0.25000  0.08333  1.0000
  Cu  Cu2757    1.0  0.42857  0.19445  0.04167  1.0000
  Cu  Cu2758    1.0  0.42857  0.30555  0.12500  1.0000
  Cu  Cu2759    1.0  0.50000  0.27778  0.04167  1.0000
  Cu  Cu2760    1.0  0.50000  0.22222  0.12500  1.0000
  Cu  Cu2761    1.0  0.44286  0.24770  0.20000  1.0000
  Cu  Cu2762    1.0  0.55714  0.25230  0.30000  1.0000
  Cu  Cu2763    1.0  0.55714  0.24770  0.21667  1.0000
  Cu  Cu2764    1.0  0.44286  0.25230  0.28333  1.0000
  Cu  Cu2765    1.0  0.51429  0.33103  0.20000  1.0000
  Cu  Cu2766    1.0  0.48571  0.16897  0.30000  1.0000
  Cu  Cu2767    1.0  0.48571  0.33103  0.21667  1.0000
  Cu  Cu2768    1.0  0.51429  0.16897  0.28333  1.0000
  Cu  Cu2769    1.0  0.47201  0.25115  0.26805  1.0000
  Cu  Cu2770    1.0  0.52799  0.24885  0.23195  1.0000
  Cu  Cu2771    1.0  0.52799  0.25115  0.31528  1.0000
  Cu  Cu2772    1.0  0.47201  0.24885  0.18472  1.0000
  Cu  Cu2773    1.0  0.54344  0.16782  0.26805  1.0000
  Cu  Cu2774    1.0  0.45656  0.33218  0.23195  1.0000
  Cu  Cu2775    1.0  0.45656  0.16782  0.31528  1.0000
  Cu  Cu2776    1.0  0.54344  0.33218  0.18472  1.0000
  Cu  Cu2777    1.0  0.42857  0.16667  0.16667  1.0000
  Cu  Cu2778    1.0  0.42857  0.16667  0.25000  1.0000
  Cu  Cu2779    1.0  0.50000  0.25000  0.16667  1.0000
  Cu  Cu2780    1.0  0.50000  0.25000  0.25000  1.0000
  Cu  Cu2781    1.0  0.42857  0.19445  0.20833  1.0000
  Cu  Cu2782    1.0  0.42857  0.30555  0.29167  1.0000
  Cu  Cu2783    1.0  0.50000  0.27778  0.20833  1.0000
  Cu  Cu2784    1.0  0.50000  0.22222  0.29167  1.0000
  Cu  Cu2785    1.0  0.44286  0.24770  0.36667  1.0000
  Cu  Cu2786    1.0  0.55714  0.25230  0.46667  1.0000
  Cu  Cu2787    1.0  0.55714  0.24770  0.38333  1.0000
  Cu  Cu2788    1.0  0.44286  0.25230  0.45000  1.0000
  Cu  Cu2789    1.0  0.51429  0.33103  0.36667  1.0000
  Cu  Cu2790    1.0  0.48571  0.16897  0.46667  1.0000
  Cu  Cu2791    1.0  0.48571  0.33103  0.38333  1.0000
  Cu  Cu2792    1.0  0.51429  0.16897  0.45000  1.0000
  Cu  Cu2793    1.0  0.47201  0.25115  0.43472  1.0000
  Cu  Cu2794    1.0  0.52799  0.24885  0.39862  1.0000
  Cu  Cu2795    1.0  0.52799  0.25115  0.48195  1.0000
  Cu  Cu2796    1.0  0.47201  0.24885  0.35138  1.0000
  Cu  Cu2797    1.0  0.54344  0.16782  0.43472  1.0000
  Cu  Cu2798    1.0  0.45656  0.33218  0.39862  1.0000
  Cu  Cu2799    1.0  0.45656  0.16782  0.48195  1.0000
  Cu  Cu2800    1.0  0.54344  0.33218  0.35138  1.0000
  Cu  Cu2801    1.0  0.42857  0.16667  0.33333  1.0000
  Cu  Cu2802    1.0  0.42857  0.16667  0.41667  1.0000
  Cu  Cu2803    1.0  0.50000  0.25000  0.33333  1.0000
  Cu  Cu2804    1.0  0.50000  0.25000  0.41667  1.0000
  Cu  Cu2805    1.0  0.42857  0.19445  0.37500  1.0000
  Cu  Cu2806    1.0  0.42857  0.30555  0.45833  1.0000
  Cu  Cu2807    1.0  0.50000  0.27778  0.37500  1.0000
  Cu  Cu2808    1.0  0.50000  0.22222  0.45833  1.0000
  Cu  Cu2809    1.0  0.44286  0.24770  0.53333  1.0000
  Cu  Cu2810    1.0  0.55714  0.25230  0.63333  1.0000
  Cu  Cu2811    1.0  0.55714  0.24770  0.55000  1.0000
  Cu  Cu2812    1.0  0.44286  0.25230  0.61667  1.0000
  Cu  Cu2813    1.0  0.51429  0.33103  0.53333  1.0000
  Cu  Cu2814    1.0  0.48571  0.16897  0.63333  1.0000
  Cu  Cu2815    1.0  0.48571  0.33103  0.55000  1.0000
  Cu  Cu2816    1.0  0.51429  0.16897  0.61667  1.0000
  Cu  Cu2817    1.0  0.47201  0.25115  0.60138  1.0000
  Cu  Cu2818    1.0  0.52799  0.24885  0.56528  1.0000
  Cu  Cu2819    1.0  0.52799  0.25115  0.64862  1.0000
  Cu  Cu2820    1.0  0.47201  0.24885  0.51805  1.0000
  Cu  Cu2821    1.0  0.54344  0.16782  0.60138  1.0000
  Cu  Cu2822    1.0  0.45656  0.33218  0.56528  1.0000
  Cu  Cu2823    1.0  0.45656  0.16782  0.64862  1.0000
  Cu  Cu2824    1.0  0.54344  0.33218  0.51805  1.0000
  Cu  Cu2825    1.0  0.42857  0.16667  0.50000  1.0000
  Cu  Cu2826    1.0  0.42857  0.16667  0.58333  1.0000
  Cu  Cu2827    1.0  0.50000  0.25000  0.50000  1.0000
  Cu  Cu2828    1.0  0.50000  0.25000  0.58333  1.0000
  Cu  Cu2829    1.0  0.42857  0.19445  0.54167  1.0000
  Cu  Cu2830    1.0  0.42857  0.30555  0.62500  1.0000
  Cu  Cu2831    1.0  0.50000  0.27778  0.54167  1.0000
  Cu  Cu2832    1.0  0.50000  0.22222  0.62500  1.0000
  Cu  Cu2833    1.0  0.44286  0.24770  0.70000  1.0000
  Cu  Cu2834    1.0  0.55714  0.25230  0.80000  1.0000
  Cu  Cu2835    1.0  0.55714  0.24770  0.71667  1.0000
  Cu  Cu2836    1.0  0.44286  0.25230  0.78333  1.0000
  Cu  Cu2837    1.0  0.51429  0.33103  0.70000  1.0000
  Cu  Cu2838    1.0  0.48571  0.16897  0.80000  1.0000
  Cu  Cu2839    1.0  0.48571  0.33103  0.71667  1.0000
  Cu  Cu2840    1.0  0.51429  0.16897  0.78333  1.0000
  Cu  Cu2841    1.0  0.47201  0.25115  0.76805  1.0000
  Cu  Cu2842    1.0  0.52799  0.24885  0.73195  1.0000
  Cu  Cu2843    1.0  0.52799  0.25115  0.81528  1.0000
  Cu  Cu2844    1.0  0.47201  0.24885  0.68472  1.0000
  Cu  Cu2845    1.0  0.54344  0.16782  0.76805  1.0000
  Cu  Cu2846    1.0  0.45656  0.33218  0.73195  1.0000
  Cu  Cu2847    1.0  0.45656  0.16782  0.81528  1.0000
  Cu  Cu2848    1.0  0.54344  0.33218  0.68472  1.0000
  Cu  Cu2849    1.0  0.42857  0.16667  0.66667  1.0000
  Cu  Cu2850    1.0  0.42857  0.16667  0.75000  1.0000
  Cu  Cu2851    1.0  0.50000  0.25000  0.66667  1.0000
  Cu  Cu2852    1.0  0.50000  0.25000  0.75000  1.0000
  Cu  Cu2853    1.0  0.42857  0.19445  0.70833  1.0000
  Cu  Cu2854    1.0  0.42857  0.30555  0.79167  1.0000
  Cu  Cu2855    1.0  0.50000  0.27778  0.70833  1.0000
  Cu  Cu2856    1.0  0.50000  0.22222  0.79167  1.0000
  Cu  Cu2857    1.0  0.44286  0.24770  0.86667  1.0000
  Cu  Cu2858    1.0  0.55714  0.25230  0.96667  1.0000
  Cu  Cu2859    1.0  0.55714  0.24770  0.88333  1.0000
  Cu  Cu2860    1.0  0.44286  0.25230  0.95000  1.0000
  Cu  Cu2861    1.0  0.51429  0.33103  0.86667  1.0000
  Cu  Cu2862    1.0  0.48571  0.16897  0.96667  1.0000
  Cu  Cu2863    1.0  0.48571  0.33103  0.88333  1.0000
  Cu  Cu2864    1.0  0.51429  0.16897  0.95000  1.0000
  Cu  Cu2865    1.0  0.47201  0.25115  0.93472  1.0000
  Cu  Cu2866    1.0  0.52799  0.24885  0.89862  1.0000
  Cu  Cu2867    1.0  0.52799  0.25115  0.98195  1.0000
  Cu  Cu2868    1.0  0.47201  0.24885  0.85138  1.0000
  Cu  Cu2869    1.0  0.54344  0.16782  0.93472  1.0000
  Cu  Cu2870    1.0  0.45656  0.33218  0.89862  1.0000
  Cu  Cu2871    1.0  0.45656  0.16782  0.98195  1.0000
  Cu  Cu2872    1.0  0.54344  0.33218  0.85138  1.0000
  Cu  Cu2873    1.0  0.42857  0.16667  0.83333  1.0000
  Cu  Cu2874    1.0  0.42857  0.16667  0.91667  1.0000
  Cu  Cu2875    1.0  0.50000  0.25000  0.83333  1.0000
  Cu  Cu2876    1.0  0.50000  0.25000  0.91667  1.0000
  Cu  Cu2877    1.0  0.42857  0.19445  0.87500  1.0000
  Cu  Cu2878    1.0  0.42857  0.30555  0.95833  1.0000
  Cu  Cu2879    1.0  0.50000  0.27778  0.87500  1.0000
  Cu  Cu2880    1.0  0.50000  0.22222  0.95833  1.0000
  Cu  Cu2881    1.0  0.44286  0.41437  0.03333  1.0000
  Cu  Cu2882    1.0  0.55714  0.41897  0.13333  1.0000
  Cu  Cu2883    1.0  0.55714  0.41437  0.05000  1.0000
  Cu  Cu2884    1.0  0.44286  0.41897  0.11667  1.0000
  Cu  Cu2885    1.0  0.51429  0.49770  0.03333  1.0000
  Cu  Cu2886    1.0  0.48571  0.33563  0.13333  1.0000
  Cu  Cu2887    1.0  0.48571  0.49770  0.05000  1.0000
  Cu  Cu2888    1.0  0.51429  0.33563  0.11667  1.0000
  Cu  Cu2889    1.0  0.47201  0.41782  0.10138  1.0000
  Cu  Cu2890    1.0  0.52799  0.41552  0.06528  1.0000
  Cu  Cu2891    1.0  0.52799  0.41782  0.14862  1.0000
  Cu  Cu2892    1.0  0.47201  0.41552  0.01805  1.0000
  Cu  Cu2893    1.0  0.54344  0.33448  0.10138  1.0000
  Cu  Cu2894    1.0  0.45656  0.49885  0.06528  1.0000
  Cu  Cu2895    1.0  0.45656  0.33448  0.14862  1.0000
  Cu  Cu2896    1.0  0.54344  0.49885  0.01805  1.0000
  Cu  Cu2897    1.0  0.42857  0.33333  0.00000  1.0000
  Cu  Cu2898    1.0  0.42857  0.33333  0.08333  1.0000
  Cu  Cu2899    1.0  0.50000  0.41667  0.00000  1.0000
  Cu  Cu2900    1.0  0.50000  0.41667  0.08333  1.0000
  Cu  Cu2901    1.0  0.42857  0.36112  0.04167  1.0000
  Cu  Cu2902    1.0  0.42857  0.47222  0.12500  1.0000
  Cu  Cu2903    1.0  0.50000  0.44445  0.04167  1.0000
  Cu  Cu2904    1.0  0.50000  0.38888  0.12500  1.0000
  Cu  Cu2905    1.0  0.44286  0.41437  0.20000  1.0000
  Cu  Cu2906    1.0  0.55714  0.41897  0.30000  1.0000
  Cu  Cu2907    1.0  0.55714  0.41437  0.21667  1.0000
  Cu  Cu2908    1.0  0.44286  0.41897  0.28333  1.0000
  Cu  Cu2909    1.0  0.51429  0.49770  0.20000  1.0000
  Cu  Cu2910    1.0  0.48571  0.33563  0.30000  1.0000
  Cu  Cu2911    1.0  0.48571  0.49770  0.21667  1.0000
  Cu  Cu2912    1.0  0.51429  0.33563  0.28333  1.0000
  Cu  Cu2913    1.0  0.47201  0.41782  0.26805  1.0000
  Cu  Cu2914    1.0  0.52799  0.41552  0.23195  1.0000
  Cu  Cu2915    1.0  0.52799  0.41782  0.31528  1.0000
  Cu  Cu2916    1.0  0.47201  0.41552  0.18472  1.0000
  Cu  Cu2917    1.0  0.54344  0.33448  0.26805  1.0000
  Cu  Cu2918    1.0  0.45656  0.49885  0.23195  1.0000
  Cu  Cu2919    1.0  0.45656  0.33448  0.31528  1.0000
  Cu  Cu2920    1.0  0.54344  0.49885  0.18472  1.0000
  Cu  Cu2921    1.0  0.42857  0.33333  0.16667  1.0000
  Cu  Cu2922    1.0  0.42857  0.33333  0.25000  1.0000
  Cu  Cu2923    1.0  0.50000  0.41667  0.16667  1.0000
  Cu  Cu2924    1.0  0.50000  0.41667  0.25000  1.0000
  Cu  Cu2925    1.0  0.42857  0.36112  0.20833  1.0000
  Cu  Cu2926    1.0  0.42857  0.47222  0.29167  1.0000
  Cu  Cu2927    1.0  0.50000  0.44445  0.20833  1.0000
  Cu  Cu2928    1.0  0.50000  0.38888  0.29167  1.0000
  Cu  Cu2929    1.0  0.44286  0.41437  0.36667  1.0000
  Cu  Cu2930    1.0  0.55714  0.41897  0.46667  1.0000
  Cu  Cu2931    1.0  0.55714  0.41437  0.38333  1.0000
  Cu  Cu2932    1.0  0.44286  0.41897  0.45000  1.0000
  Cu  Cu2933    1.0  0.51429  0.49770  0.36667  1.0000
  Cu  Cu2934    1.0  0.48571  0.33563  0.46667  1.0000
  Cu  Cu2935    1.0  0.48571  0.49770  0.38333  1.0000
  Cu  Cu2936    1.0  0.51429  0.33563  0.45000  1.0000
  Cu  Cu2937    1.0  0.47201  0.41782  0.43472  1.0000
  Cu  Cu2938    1.0  0.52799  0.41552  0.39862  1.0000
  Cu  Cu2939    1.0  0.52799  0.41782  0.48195  1.0000
  Cu  Cu2940    1.0  0.47201  0.41552  0.35138  1.0000
  Cu  Cu2941    1.0  0.54344  0.33448  0.43472  1.0000
  Cu  Cu2942    1.0  0.45656  0.49885  0.39862  1.0000
  Cu  Cu2943    1.0  0.45656  0.33448  0.48195  1.0000
  Cu  Cu2944    1.0  0.54344  0.49885  0.35138  1.0000
  Cu  Cu2945    1.0  0.42857  0.33333  0.33333  1.0000
  Cu  Cu2946    1.0  0.42857  0.33333  0.41667  1.0000
  Cu  Cu2947    1.0  0.50000  0.41667  0.33333  1.0000
  Cu  Cu2948    1.0  0.50000  0.41667  0.41667  1.0000
  Cu  Cu2949    1.0  0.42857  0.36112  0.37500  1.0000
  Cu  Cu2950    1.0  0.42857  0.47222  0.45833  1.0000
  Cu  Cu2951    1.0  0.50000  0.44445  0.37500  1.0000
  Cu  Cu2952    1.0  0.50000  0.38888  0.45833  1.0000
  Cu  Cu2953    1.0  0.44286  0.41437  0.53333  1.0000
  Cu  Cu2954    1.0  0.55714  0.41897  0.63333  1.0000
  Cu  Cu2955    1.0  0.55714  0.41437  0.55000  1.0000
  Cu  Cu2956    1.0  0.44286  0.41897  0.61667  1.0000
  Cu  Cu2957    1.0  0.51429  0.49770  0.53333  1.0000
  Cu  Cu2958    1.0  0.48571  0.33563  0.63333  1.0000
  Cu  Cu2959    1.0  0.48571  0.49770  0.55000  1.0000
  Cu  Cu2960    1.0  0.51429  0.33563  0.61667  1.0000
  Cu  Cu2961    1.0  0.47201  0.41782  0.60138  1.0000
  Cu  Cu2962    1.0  0.52799  0.41552  0.56528  1.0000
  Cu  Cu2963    1.0  0.52799  0.41782  0.64862  1.0000
  Cu  Cu2964    1.0  0.47201  0.41552  0.51805  1.0000
  Cu  Cu2965    1.0  0.54344  0.33448  0.60138  1.0000
  Cu  Cu2966    1.0  0.45656  0.49885  0.56528  1.0000
  Cu  Cu2967    1.0  0.45656  0.33448  0.64862  1.0000
  Cu  Cu2968    1.0  0.54344  0.49885  0.51805  1.0000
  Cu  Cu2969    1.0  0.42857  0.33333  0.50000  1.0000
  Cu  Cu2970    1.0  0.42857  0.33333  0.58333  1.0000
  Cu  Cu2971    1.0  0.50000  0.41667  0.50000  1.0000
  Cu  Cu2972    1.0  0.50000  0.41667  0.58333  1.0000
  Cu  Cu2973    1.0  0.42857  0.36112  0.54167  1.0000
  Cu  Cu2974    1.0  0.42857  0.47222  0.62500  1.0000
  Cu  Cu2975    1.0  0.50000  0.44445  0.54167  1.0000
  Cu  Cu2976    1.0  0.50000  0.38888  0.62500  1.0000
  Cu  Cu2977    1.0  0.44286  0.41437  0.70000  1.0000
  Cu  Cu2978    1.0  0.55714  0.41897  0.80000  1.0000
  Cu  Cu2979    1.0  0.55714  0.41437  0.71667  1.0000
  Cu  Cu2980    1.0  0.44286  0.41897  0.78333  1.0000
  Cu  Cu2981    1.0  0.51429  0.49770  0.70000  1.0000
  Cu  Cu2982    1.0  0.48571  0.33563  0.80000  1.0000
  Cu  Cu2983    1.0  0.48571  0.49770  0.71667  1.0000
  Cu  Cu2984    1.0  0.51429  0.33563  0.78333  1.0000
  Cu  Cu2985    1.0  0.47201  0.41782  0.76805  1.0000
  Cu  Cu2986    1.0  0.52799  0.41552  0.73195  1.0000
  Cu  Cu2987    1.0  0.52799  0.41782  0.81528  1.0000
  Cu  Cu2988    1.0  0.47201  0.41552  0.68472  1.0000
  Cu  Cu2989    1.0  0.54344  0.33448  0.76805  1.0000
  Cu  Cu2990    1.0  0.45656  0.49885  0.73195  1.0000
  Cu  Cu2991    1.0  0.45656  0.33448  0.81528  1.0000
  Cu  Cu2992    1.0  0.54344  0.49885  0.68472  1.0000
  Cu  Cu2993    1.0  0.42857  0.33333  0.66667  1.0000
  Cu  Cu2994    1.0  0.42857  0.33333  0.75000  1.0000
  Cu  Cu2995    1.0  0.50000  0.41667  0.66667  1.0000
  Cu  Cu2996    1.0  0.50000  0.41667  0.75000  1.0000
  Cu  Cu2997    1.0  0.42857  0.36112  0.70833  1.0000
  Cu  Cu2998    1.0  0.42857  0.47222  0.79167  1.0000
  Cu  Cu2999    1.0  0.50000  0.44445  0.70833  1.0000
  Cu  Cu3000    1.0  0.50000  0.38888  0.79167  1.0000
  Cu  Cu3001    1.0  0.44286  0.41437  0.86667  1.0000
  Cu  Cu3002    1.0  0.55714  0.41897  0.96667  1.0000
  Cu  Cu3003    1.0  0.55714  0.41437  0.88333  1.0000
  Cu  Cu3004    1.0  0.44286  0.41897  0.95000  1.0000
  Cu  Cu3005    1.0  0.51429  0.49770  0.86667  1.0000
  Cu  Cu3006    1.0  0.48571  0.33563  0.96667  1.0000
  Cu  Cu3007    1.0  0.48571  0.49770  0.88333  1.0000
  Cu  Cu3008    1.0  0.51429  0.33563  0.95000  1.0000
  Cu  Cu3009    1.0  0.47201  0.41782  0.93472  1.0000
  Cu  Cu3010    1.0  0.52799  0.41552  0.89862  1.0000
  Cu  Cu3011    1.0  0.52799  0.41782  0.98195  1.0000
  Cu  Cu3012    1.0  0.47201  0.41552  0.85138  1.0000
  Cu  Cu3013    1.0  0.54344  0.33448  0.93472  1.0000
  Cu  Cu3014    1.0  0.45656  0.49885  0.89862  1.0000
  Cu  Cu3015    1.0  0.45656  0.33448  0.98195  1.0000
  Cu  Cu3016    1.0  0.54344  0.49885  0.85138  1.0000
  Cu  Cu3017    1.0  0.42857  0.33333  0.83333  1.0000
  Cu  Cu3018    1.0  0.42857  0.33333  0.91667  1.0000
  Cu  Cu3019    1.0  0.50000  0.41667  0.83333  1.0000
  Cu  Cu3020    1.0  0.50000  0.41667  0.91667  1.0000
  Cu  Cu3021    1.0  0.42857  0.36112  0.87500  1.0000
  Cu  Cu3022    1.0  0.42857  0.47222  0.95833  1.0000
  Cu  Cu3023    1.0  0.50000  0.44445  0.87500  1.0000
  Cu  Cu3024    1.0  0.50000  0.38888  0.95833  1.0000
  Cu  Cu3025    1.0  0.44286  0.58103  0.03333  1.0000
  Cu  Cu3026    1.0  0.55714  0.58563  0.13333  1.0000
  Cu  Cu3027    1.0  0.55714  0.58103  0.05000  1.0000
  Cu  Cu3028    1.0  0.44286  0.58563  0.11667  1.0000
  Cu  Cu3029    1.0  0.51429  0.66437  0.03333  1.0000
  Cu  Cu3030    1.0  0.48571  0.50230  0.13333  1.0000
  Cu  Cu3031    1.0  0.48571  0.66437  0.05000  1.0000
  Cu  Cu3032    1.0  0.51429  0.50230  0.11667  1.0000
  Cu  Cu3033    1.0  0.47201  0.58448  0.10138  1.0000
  Cu  Cu3034    1.0  0.52799  0.58218  0.06528  1.0000
  Cu  Cu3035    1.0  0.52799  0.58448  0.14862  1.0000
  Cu  Cu3036    1.0  0.47201  0.58218  0.01805  1.0000
  Cu  Cu3037    1.0  0.54344  0.50115  0.10138  1.0000
  Cu  Cu3038    1.0  0.45656  0.66552  0.06528  1.0000
  Cu  Cu3039    1.0  0.45656  0.50115  0.14862  1.0000
  Cu  Cu3040    1.0  0.54344  0.66552  0.01805  1.0000
  Cu  Cu3041    1.0  0.42857  0.50000  0.00000  1.0000
  Cu  Cu3042    1.0  0.42857  0.50000  0.08333  1.0000
  Cu  Cu3043    1.0  0.50000  0.58333  0.00000  1.0000
  Cu  Cu3044    1.0  0.50000  0.58333  0.08333  1.0000
  Cu  Cu3045    1.0  0.42857  0.52778  0.04167  1.0000
  Cu  Cu3046    1.0  0.42857  0.63888  0.12500  1.0000
  Cu  Cu3047    1.0  0.50000  0.61112  0.04167  1.0000
  Cu  Cu3048    1.0  0.50000  0.55555  0.12500  1.0000
  Cu  Cu3049    1.0  0.44286  0.58103  0.20000  1.0000
  Cu  Cu3050    1.0  0.55714  0.58563  0.30000  1.0000
  Cu  Cu3051    1.0  0.55714  0.58103  0.21667  1.0000
  Cu  Cu3052    1.0  0.44286  0.58563  0.28333  1.0000
  Cu  Cu3053    1.0  0.51429  0.66437  0.20000  1.0000
  Cu  Cu3054    1.0  0.48571  0.50230  0.30000  1.0000
  Cu  Cu3055    1.0  0.48571  0.66437  0.21667  1.0000
  Cu  Cu3056    1.0  0.51429  0.50230  0.28333  1.0000
  Cu  Cu3057    1.0  0.47201  0.58448  0.26805  1.0000
  Cu  Cu3058    1.0  0.52799  0.58218  0.23195  1.0000
  Cu  Cu3059    1.0  0.52799  0.58448  0.31528  1.0000
  Cu  Cu3060    1.0  0.47201  0.58218  0.18472  1.0000
  Cu  Cu3061    1.0  0.54344  0.50115  0.26805  1.0000
  Cu  Cu3062    1.0  0.45656  0.66552  0.23195  1.0000
  Cu  Cu3063    1.0  0.45656  0.50115  0.31528  1.0000
  Cu  Cu3064    1.0  0.54344  0.66552  0.18472  1.0000
  Cu  Cu3065    1.0  0.42857  0.50000  0.16667  1.0000
  Cu  Cu3066    1.0  0.42857  0.50000  0.25000  1.0000
  Cu  Cu3067    1.0  0.50000  0.58333  0.16667  1.0000
  Cu  Cu3068    1.0  0.50000  0.58333  0.25000  1.0000
  Cu  Cu3069    1.0  0.42857  0.52778  0.20833  1.0000
  Cu  Cu3070    1.0  0.42857  0.63888  0.29167  1.0000
  Cu  Cu3071    1.0  0.50000  0.61112  0.20833  1.0000
  Cu  Cu3072    1.0  0.50000  0.55555  0.29167  1.0000
  Cu  Cu3073    1.0  0.44286  0.58103  0.36667  1.0000
  Cu  Cu3074    1.0  0.55714  0.58563  0.46667  1.0000
  Cu  Cu3075    1.0  0.55714  0.58103  0.38333  1.0000
  Cu  Cu3076    1.0  0.44286  0.58563  0.45000  1.0000
  Cu  Cu3077    1.0  0.51429  0.66437  0.36667  1.0000
  Cu  Cu3078    1.0  0.48571  0.50230  0.46667  1.0000
  Cu  Cu3079    1.0  0.48571  0.66437  0.38333  1.0000
  Cu  Cu3080    1.0  0.51429  0.50230  0.45000  1.0000
  Cu  Cu3081    1.0  0.47201  0.58448  0.43472  1.0000
  Cu  Cu3082    1.0  0.52799  0.58218  0.39862  1.0000
  Cu  Cu3083    1.0  0.52799  0.58448  0.48195  1.0000
  Cu  Cu3084    1.0  0.47201  0.58218  0.35138  1.0000
  Cu  Cu3085    1.0  0.54344  0.50115  0.43472  1.0000
  Cu  Cu3086    1.0  0.45656  0.66552  0.39862  1.0000
  Cu  Cu3087    1.0  0.45656  0.50115  0.48195  1.0000
  Cu  Cu3088    1.0  0.54344  0.66552  0.35138  1.0000
  Cu  Cu3089    1.0  0.42857  0.50000  0.33333  1.0000
  Cu  Cu3090    1.0  0.42857  0.50000  0.41667  1.0000
  Cu  Cu3091    1.0  0.50000  0.58333  0.33333  1.0000
  Cu  Cu3092    1.0  0.50000  0.58333  0.41667  1.0000
  Cu  Cu3093    1.0  0.42857  0.52778  0.37500  1.0000
  Cu  Cu3094    1.0  0.42857  0.63888  0.45833  1.0000
  Cu  Cu3095    1.0  0.50000  0.61112  0.37500  1.0000
  Cu  Cu3096    1.0  0.50000  0.55555  0.45833  1.0000
  Cu  Cu3097    1.0  0.44286  0.58103  0.53333  1.0000
  Cu  Cu3098    1.0  0.55714  0.58563  0.63333  1.0000
  Cu  Cu3099    1.0  0.55714  0.58103  0.55000  1.0000
  Cu  Cu3100    1.0  0.44286  0.58563  0.61667  1.0000
  Cu  Cu3101    1.0  0.51429  0.66437  0.53333  1.0000
  Cu  Cu3102    1.0  0.48571  0.50230  0.63333  1.0000
  Cu  Cu3103    1.0  0.48571  0.66437  0.55000  1.0000
  Cu  Cu3104    1.0  0.51429  0.50230  0.61667  1.0000
  Cu  Cu3105    1.0  0.47201  0.58448  0.60138  1.0000
  Cu  Cu3106    1.0  0.52799  0.58218  0.56528  1.0000
  Cu  Cu3107    1.0  0.52799  0.58448  0.64862  1.0000
  Cu  Cu3108    1.0  0.47201  0.58218  0.51805  1.0000
  Cu  Cu3109    1.0  0.54344  0.50115  0.60138  1.0000
  Cu  Cu3110    1.0  0.45656  0.66552  0.56528  1.0000
  Cu  Cu3111    1.0  0.45656  0.50115  0.64862  1.0000
  Cu  Cu3112    1.0  0.54344  0.66552  0.51805  1.0000
  Cu  Cu3113    1.0  0.42857  0.50000  0.50000  1.0000
  Cu  Cu3114    1.0  0.42857  0.50000  0.58333  1.0000
  Cu  Cu3115    1.0  0.50000  0.58333  0.50000  1.0000
  Cu  Cu3116    1.0  0.50000  0.58333  0.58333  1.0000
  Cu  Cu3117    1.0  0.42857  0.52778  0.54167  1.0000
  Cu  Cu3118    1.0  0.42857  0.63888  0.62500  1.0000
  Cu  Cu3119    1.0  0.50000  0.61112  0.54167  1.0000
  Cu  Cu3120    1.0  0.50000  0.55555  0.62500  1.0000
  Cu  Cu3121    1.0  0.44286  0.58103  0.70000  1.0000
  Cu  Cu3122    1.0  0.55714  0.58563  0.80000  1.0000
  Cu  Cu3123    1.0  0.55714  0.58103  0.71667  1.0000
  Cu  Cu3124    1.0  0.44286  0.58563  0.78333  1.0000
  Cu  Cu3125    1.0  0.51429  0.66437  0.70000  1.0000
  Cu  Cu3126    1.0  0.48571  0.50230  0.80000  1.0000
  Cu  Cu3127    1.0  0.48571  0.66437  0.71667  1.0000
  Cu  Cu3128    1.0  0.51429  0.50230  0.78333  1.0000
  Cu  Cu3129    1.0  0.47201  0.58448  0.76805  1.0000
  Cu  Cu3130    1.0  0.52799  0.58218  0.73195  1.0000
  Cu  Cu3131    1.0  0.52799  0.58448  0.81528  1.0000
  Cu  Cu3132    1.0  0.47201  0.58218  0.68472  1.0000
  Cu  Cu3133    1.0  0.54344  0.50115  0.76805  1.0000
  Cu  Cu3134    1.0  0.45656  0.66552  0.73195  1.0000
  Cu  Cu3135    1.0  0.45656  0.50115  0.81528  1.0000
  Cu  Cu3136    1.0  0.54344  0.66552  0.68472  1.0000
  Cu  Cu3137    1.0  0.42857  0.50000  0.66667  1.0000
  Cu  Cu3138    1.0  0.42857  0.50000  0.75000  1.0000
  Cu  Cu3139    1.0  0.50000  0.58333  0.66667  1.0000
  Cu  Cu3140    1.0  0.50000  0.58333  0.75000  1.0000
  Cu  Cu3141    1.0  0.42857  0.52778  0.70833  1.0000
  Cu  Cu3142    1.0  0.42857  0.63888  0.79167  1.0000
  Cu  Cu3143    1.0  0.50000  0.61112  0.70833  1.0000
  Cu  Cu3144    1.0  0.50000  0.55555  0.79167  1.0000
  Cu  Cu3145    1.0  0.44286  0.58103  0.86667  1.0000
  Cu  Cu3146    1.0  0.55714  0.58563  0.96667  1.0000
  Cu  Cu3147    1.0  0.55714  0.58103  0.88333  1.0000
  Cu  Cu3148    1.0  0.44286  0.58563  0.95000  1.0000
  Cu  Cu3149    1.0  0.51429  0.66437  0.86667  1.0000
  Cu  Cu3150    1.0  0.48571  0.50230  0.96667  1.0000
  Cu  Cu3151    1.0  0.48571  0.66437  0.88333  1.0000
  Cu  Cu3152    1.0  0.51429  0.50230  0.95000  1.0000
  Cu  Cu3153    1.0  0.47201  0.58448  0.93472  1.0000
  Cu  Cu3154    1.0  0.52799  0.58218  0.89862  1.0000
  Cu  Cu3155    1.0  0.52799  0.58448  0.98195  1.0000
  Cu  Cu3156    1.0  0.47201  0.58218  0.85138  1.0000
  Cu  Cu3157    1.0  0.54344  0.50115  0.93472  1.0000
  Cu  Cu3158    1.0  0.45656  0.66552  0.89862  1.0000
  Cu  Cu3159    1.0  0.45656  0.50115  0.98195  1.0000
  Cu  Cu3160    1.0  0.54344  0.66552  0.85138  1.0000
  Cu  Cu3161    1.0  0.42857  0.50000  0.83333  1.0000
  Cu  Cu3162    1.0  0.42857  0.50000  0.91667  1.0000
  Cu  Cu3163    1.0  0.50000  0.58333  0.83333  1.0000
  Cu  Cu3164    1.0  0.50000  0.58333  0.91667  1.0000
  Cu  Cu3165    1.0  0.42857  0.52778  0.87500  1.0000
  Cu  Cu3166    1.0  0.42857  0.63888  0.95833  1.0000
  Cu  Cu3167    1.0  0.50000  0.61112  0.87500  1.0000
  Cu  Cu3168    1.0  0.50000  0.55555  0.95833  1.0000
  Cu  Cu3169    1.0  0.44286  0.74770  0.03333  1.0000
  Cu  Cu3170    1.0  0.55714  0.75230  0.13333  1.0000
  Cu  Cu3171    1.0  0.55714  0.74770  0.05000  1.0000
  Cu  Cu3172    1.0  0.44286  0.75230  0.11667  1.0000
  Cu  Cu3173    1.0  0.51429  0.83103  0.03333  1.0000
  Cu  Cu3174    1.0  0.48571  0.66897  0.13333  1.0000
  Cu  Cu3175    1.0  0.48571  0.83103  0.05000  1.0000
  Cu  Cu3176    1.0  0.51429  0.66897  0.11667  1.0000
  Cu  Cu3177    1.0  0.47201  0.75115  0.10138  1.0000
  Cu  Cu3178    1.0  0.52799  0.74885  0.06528  1.0000
  Cu  Cu3179    1.0  0.52799  0.75115  0.14862  1.0000
  Cu  Cu3180    1.0  0.47201  0.74885  0.01805  1.0000
  Cu  Cu3181    1.0  0.54344  0.66782  0.10138  1.0000
  Cu  Cu3182    1.0  0.45656  0.83218  0.06528  1.0000
  Cu  Cu3183    1.0  0.45656  0.66782  0.14862  1.0000
  Cu  Cu3184    1.0  0.54344  0.83218  0.01805  1.0000
  Cu  Cu3185    1.0  0.42857  0.66667  0.00000  1.0000
  Cu  Cu3186    1.0  0.42857  0.66667  0.08333  1.0000
  Cu  Cu3187    1.0  0.50000  0.75000  0.00000  1.0000
  Cu  Cu3188    1.0  0.50000  0.75000  0.08333  1.0000
  Cu  Cu3189    1.0  0.42857  0.69445  0.04167  1.0000
  Cu  Cu3190    1.0  0.42857  0.80555  0.12500  1.0000
  Cu  Cu3191    1.0  0.50000  0.77778  0.04167  1.0000
  Cu  Cu3192    1.0  0.50000  0.72222  0.12500  1.0000
  Cu  Cu3193    1.0  0.44286  0.74770  0.20000  1.0000
  Cu  Cu3194    1.0  0.55714  0.75230  0.30000  1.0000
  Cu  Cu3195    1.0  0.55714  0.74770  0.21667  1.0000
  Cu  Cu3196    1.0  0.44286  0.75230  0.28333  1.0000
  Cu  Cu3197    1.0  0.51429  0.83103  0.20000  1.0000
  Cu  Cu3198    1.0  0.48571  0.66897  0.30000  1.0000
  Cu  Cu3199    1.0  0.48571  0.83103  0.21667  1.0000
  Cu  Cu3200    1.0  0.51429  0.66897  0.28333  1.0000
  Cu  Cu3201    1.0  0.47201  0.75115  0.26805  1.0000
  Cu  Cu3202    1.0  0.52799  0.74885  0.23195  1.0000
  Cu  Cu3203    1.0  0.52799  0.75115  0.31528  1.0000
  Cu  Cu3204    1.0  0.47201  0.74885  0.18472  1.0000
  Cu  Cu3205    1.0  0.54344  0.66782  0.26805  1.0000
  Cu  Cu3206    1.0  0.45656  0.83218  0.23195  1.0000
  Cu  Cu3207    1.0  0.45656  0.66782  0.31528  1.0000
  Cu  Cu3208    1.0  0.54344  0.83218  0.18472  1.0000
  Cu  Cu3209    1.0  0.42857  0.66667  0.16667  1.0000
  Cu  Cu3210    1.0  0.42857  0.66667  0.25000  1.0000
  Cu  Cu3211    1.0  0.50000  0.75000  0.16667  1.0000
  Cu  Cu3212    1.0  0.50000  0.75000  0.25000  1.0000
  Cu  Cu3213    1.0  0.42857  0.69445  0.20833  1.0000
  Cu  Cu3214    1.0  0.42857  0.80555  0.29167  1.0000
  Cu  Cu3215    1.0  0.50000  0.77778  0.20833  1.0000
  Cu  Cu3216    1.0  0.50000  0.72222  0.29167  1.0000
  Cu  Cu3217    1.0  0.44286  0.74770  0.36667  1.0000
  Cu  Cu3218    1.0  0.55714  0.75230  0.46667  1.0000
  Cu  Cu3219    1.0  0.55714  0.74770  0.38333  1.0000
  Cu  Cu3220    1.0  0.44286  0.75230  0.45000  1.0000
  Cu  Cu3221    1.0  0.51429  0.83103  0.36667  1.0000
  Cu  Cu3222    1.0  0.48571  0.66897  0.46667  1.0000
  Cu  Cu3223    1.0  0.48571  0.83103  0.38333  1.0000
  Cu  Cu3224    1.0  0.51429  0.66897  0.45000  1.0000
  Cu  Cu3225    1.0  0.47201  0.75115  0.43472  1.0000
  Cu  Cu3226    1.0  0.52799  0.74885  0.39862  1.0000
  Cu  Cu3227    1.0  0.52799  0.75115  0.48195  1.0000
  Cu  Cu3228    1.0  0.47201  0.74885  0.35138  1.0000
  Cu  Cu3229    1.0  0.54344  0.66782  0.43472  1.0000
  Cu  Cu3230    1.0  0.45656  0.83218  0.39862  1.0000
  Cu  Cu3231    1.0  0.45656  0.66782  0.48195  1.0000
  Cu  Cu3232    1.0  0.54344  0.83218  0.35138  1.0000
  Cu  Cu3233    1.0  0.42857  0.66667  0.33333  1.0000
  Cu  Cu3234    1.0  0.42857  0.66667  0.41667  1.0000
  Cu  Cu3235    1.0  0.50000  0.75000  0.33333  1.0000
  Cu  Cu3236    1.0  0.50000  0.75000  0.41667  1.0000
  Cu  Cu3237    1.0  0.42857  0.69445  0.37500  1.0000
  Cu  Cu3238    1.0  0.42857  0.80555  0.45833  1.0000
  Cu  Cu3239    1.0  0.50000  0.77778  0.37500  1.0000
  Cu  Cu3240    1.0  0.50000  0.72222  0.45833  1.0000
  Cu  Cu3241    1.0  0.44286  0.74770  0.53333  1.0000
  Cu  Cu3242    1.0  0.55714  0.75230  0.63333  1.0000
  Cu  Cu3243    1.0  0.55714  0.74770  0.55000  1.0000
  Cu  Cu3244    1.0  0.44286  0.75230  0.61667  1.0000
  Cu  Cu3245    1.0  0.51429  0.83103  0.53333  1.0000
  Cu  Cu3246    1.0  0.48571  0.66897  0.63333  1.0000
  Cu  Cu3247    1.0  0.48571  0.83103  0.55000  1.0000
  Cu  Cu3248    1.0  0.51429  0.66897  0.61667  1.0000
  Cu  Cu3249    1.0  0.47201  0.75115  0.60138  1.0000
  Cu  Cu3250    1.0  0.52799  0.74885  0.56528  1.0000
  Cu  Cu3251    1.0  0.52799  0.75115  0.64862  1.0000
  Cu  Cu3252    1.0  0.47201  0.74885  0.51805  1.0000
  Cu  Cu3253    1.0  0.54344  0.66782  0.60138  1.0000
  Cu  Cu3254    1.0  0.45656  0.83218  0.56528  1.0000
  Cu  Cu3255    1.0  0.45656  0.66782  0.64862  1.0000
  Cu  Cu3256    1.0  0.54344  0.83218  0.51805  1.0000
  Cu  Cu3257    1.0  0.42857  0.66667  0.50000  1.0000
  Cu  Cu3258    1.0  0.42857  0.66667  0.58333  1.0000
  Cu  Cu3259    1.0  0.50000  0.75000  0.50000  1.0000
  Cu  Cu3260    1.0  0.50000  0.75000  0.58333  1.0000
  Cu  Cu3261    1.0  0.42857  0.69445  0.54167  1.0000
  Cu  Cu3262    1.0  0.42857  0.80555  0.62500  1.0000
  Cu  Cu3263    1.0  0.50000  0.77778  0.54167  1.0000
  Cu  Cu3264    1.0  0.50000  0.72222  0.62500  1.0000
  Cu  Cu3265    1.0  0.44286  0.74770  0.70000  1.0000
  Cu  Cu3266    1.0  0.55714  0.75230  0.80000  1.0000
  Cu  Cu3267    1.0  0.55714  0.74770  0.71667  1.0000
  Cu  Cu3268    1.0  0.44286  0.75230  0.78333  1.0000
  Cu  Cu3269    1.0  0.51429  0.83103  0.70000  1.0000
  Cu  Cu3270    1.0  0.48571  0.66897  0.80000  1.0000
  Cu  Cu3271    1.0  0.48571  0.83103  0.71667  1.0000
  Cu  Cu3272    1.0  0.51429  0.66897  0.78333  1.0000
  Cu  Cu3273    1.0  0.47201  0.75115  0.76805  1.0000
  Cu  Cu3274    1.0  0.52799  0.74885  0.73195  1.0000
  Cu  Cu3275    1.0  0.52799  0.75115  0.81528  1.0000
  Cu  Cu3276    1.0  0.47201  0.74885  0.68472  1.0000
  Cu  Cu3277    1.0  0.54344  0.66782  0.76805  1.0000
  Cu  Cu3278    1.0  0.45656  0.83218  0.73195  1.0000
  Cu  Cu3279    1.0  0.45656  0.66782  0.81528  1.0000
  Cu  Cu3280    1.0  0.54344  0.83218  0.68472  1.0000
  Cu  Cu3281    1.0  0.42857  0.66667  0.66667  1.0000
  Cu  Cu3282    1.0  0.42857  0.66667  0.75000  1.0000
  Cu  Cu3283    1.0  0.50000  0.75000  0.66667  1.0000
  Cu  Cu3284    1.0  0.50000  0.75000  0.75000  1.0000
  Cu  Cu3285    1.0  0.42857  0.69445  0.70833  1.0000
  Cu  Cu3286    1.0  0.42857  0.80555  0.79167  1.0000
  Cu  Cu3287    1.0  0.50000  0.77778  0.70833  1.0000
  Cu  Cu3288    1.0  0.50000  0.72222  0.79167  1.0000
  Cu  Cu3289    1.0  0.44286  0.74770  0.86667  1.0000
  Cu  Cu3290    1.0  0.55714  0.75230  0.96667  1.0000
  Cu  Cu3291    1.0  0.55714  0.74770  0.88333  1.0000
  Cu  Cu3292    1.0  0.44286  0.75230  0.95000  1.0000
  Cu  Cu3293    1.0  0.51429  0.83103  0.86667  1.0000
  Cu  Cu3294    1.0  0.48571  0.66897  0.96667  1.0000
  Cu  Cu3295    1.0  0.48571  0.83103  0.88333  1.0000
  Cu  Cu3296    1.0  0.51429  0.66897  0.95000  1.0000
  Cu  Cu3297    1.0  0.47201  0.75115  0.93472  1.0000
  Cu  Cu3298    1.0  0.52799  0.74885  0.89862  1.0000
  Cu  Cu3299    1.0  0.52799  0.75115  0.98195  1.0000
  Cu  Cu3300    1.0  0.47201  0.74885  0.85138  1.0000
  Cu  Cu3301    1.0  0.54344  0.66782  0.93472  1.0000
  Cu  Cu3302    1.0  0.45656  0.83218  0.89862  1.0000
  Cu  Cu3303    1.0  0.45656  0.66782  0.98195  1.0000
  Cu  Cu3304    1.0  0.54344  0.83218  0.85138  1.0000
  Cu  Cu3305    1.0  0.42857  0.66667  0.83333  1.0000
  Cu  Cu3306    1.0  0.42857  0.66667  0.91667  1.0000
  Cu  Cu3307    1.0  0.50000  0.75000  0.83333  1.0000
  Cu  Cu3308    1.0  0.50000  0.75000  0.91667  1.0000
  Cu  Cu3309    1.0  0.42857  0.69445  0.87500  1.0000
  Cu  Cu3310    1.0  0.42857  0.80555  0.95833  1.0000
  Cu  Cu3311    1.0  0.50000  0.77778  0.87500  1.0000
  Cu  Cu3312    1.0  0.50000  0.72222  0.95833  1.0000
  Cu  Cu3313    1.0  0.44286  0.91437  0.03333  1.0000
  Cu  Cu3314    1.0  0.55714  0.91897  0.13333  1.0000
  Cu  Cu3315    1.0  0.55714  0.91437  0.05000  1.0000
  Cu  Cu3316    1.0  0.44286  0.91897  0.11667  1.0000
  Cu  Cu3317    1.0  0.51429  0.99770  0.03333  1.0000
  Cu  Cu3318    1.0  0.48571  0.83563  0.13333  1.0000
  Cu  Cu3319    1.0  0.48571  0.99770  0.05000  1.0000
  Cu  Cu3320    1.0  0.51429  0.83563  0.11667  1.0000
  Cu  Cu3321    1.0  0.47201  0.91782  0.10138  1.0000
  Cu  Cu3322    1.0  0.52799  0.91552  0.06528  1.0000
  Cu  Cu3323    1.0  0.52799  0.91782  0.14862  1.0000
  Cu  Cu3324    1.0  0.47201  0.91552  0.01805  1.0000
  Cu  Cu3325    1.0  0.54344  0.83448  0.10138  1.0000
  Cu  Cu3326    1.0  0.45656  0.99885  0.06528  1.0000
  Cu  Cu3327    1.0  0.45656  0.83448  0.14862  1.0000
  Cu  Cu3328    1.0  0.54344  0.99885  0.01805  1.0000
  Cu  Cu3329    1.0  0.42857  0.83333  0.00000  1.0000
  Cu  Cu3330    1.0  0.42857  0.83333  0.08333  1.0000
  Cu  Cu3331    1.0  0.50000  0.91667  0.00000  1.0000
  Cu  Cu3332    1.0  0.50000  0.91667  0.08333  1.0000
  Cu  Cu3333    1.0  0.42857  0.86112  0.04167  1.0000
  Cu  Cu3334    1.0  0.42857  0.97222  0.12500  1.0000
  Cu  Cu3335    1.0  0.50000  0.94445  0.04167  1.0000
  Cu  Cu3336    1.0  0.50000  0.88888  0.12500  1.0000
  Cu  Cu3337    1.0  0.44286  0.91437  0.20000  1.0000
  Cu  Cu3338    1.0  0.55714  0.91897  0.30000  1.0000
  Cu  Cu3339    1.0  0.55714  0.91437  0.21667  1.0000
  Cu  Cu3340    1.0  0.44286  0.91897  0.28333  1.0000
  Cu  Cu3341    1.0  0.51429  0.99770  0.20000  1.0000
  Cu  Cu3342    1.0  0.48571  0.83563  0.30000  1.0000
  Cu  Cu3343    1.0  0.48571  0.99770  0.21667  1.0000
  Cu  Cu3344    1.0  0.51429  0.83563  0.28333  1.0000
  Cu  Cu3345    1.0  0.47201  0.91782  0.26805  1.0000
  Cu  Cu3346    1.0  0.52799  0.91552  0.23195  1.0000
  Cu  Cu3347    1.0  0.52799  0.91782  0.31528  1.0000
  Cu  Cu3348    1.0  0.47201  0.91552  0.18472  1.0000
  Cu  Cu3349    1.0  0.54344  0.83448  0.26805  1.0000
  Cu  Cu3350    1.0  0.45656  0.99885  0.23195  1.0000
  Cu  Cu3351    1.0  0.45656  0.83448  0.31528  1.0000
  Cu  Cu3352    1.0  0.54344  0.99885  0.18472  1.0000
  Cu  Cu3353    1.0  0.42857  0.83333  0.16667  1.0000
  Cu  Cu3354    1.0  0.42857  0.83333  0.25000  1.0000
  Cu  Cu3355    1.0  0.50000  0.91667  0.16667  1.0000
  Cu  Cu3356    1.0  0.50000  0.91667  0.25000  1.0000
  Cu  Cu3357    1.0  0.42857  0.86112  0.20833  1.0000
  Cu  Cu3358    1.0  0.42857  0.97222  0.29167  1.0000
  Cu  Cu3359    1.0  0.50000  0.94445  0.20833  1.0000
  Cu  Cu3360    1.0  0.50000  0.88888  0.29167  1.0000
  Cu  Cu3361    1.0  0.44286  0.91437  0.36667  1.0000
  Cu  Cu3362    1.0  0.55714  0.91897  0.46667  1.0000
  Cu  Cu3363    1.0  0.55714  0.91437  0.38333  1.0000
  Cu  Cu3364    1.0  0.44286  0.91897  0.45000  1.0000
  Cu  Cu3365    1.0  0.51429  0.99770  0.36667  1.0000
  Cu  Cu3366    1.0  0.48571  0.83563  0.46667  1.0000
  Cu  Cu3367    1.0  0.48571  0.99770  0.38333  1.0000
  Cu  Cu3368    1.0  0.51429  0.83563  0.45000  1.0000
  Cu  Cu3369    1.0  0.47201  0.91782  0.43472  1.0000
  Cu  Cu3370    1.0  0.52799  0.91552  0.39862  1.0000
  Cu  Cu3371    1.0  0.52799  0.91782  0.48195  1.0000
  Cu  Cu3372    1.0  0.47201  0.91552  0.35138  1.0000
  Cu  Cu3373    1.0  0.54344  0.83448  0.43472  1.0000
  Cu  Cu3374    1.0  0.45656  0.99885  0.39862  1.0000
  Cu  Cu3375    1.0  0.45656  0.83448  0.48195  1.0000
  Cu  Cu3376    1.0  0.54344  0.99885  0.35138  1.0000
  Cu  Cu3377    1.0  0.42857  0.83333  0.33333  1.0000
  Cu  Cu3378    1.0  0.42857  0.83333  0.41667  1.0000
  Cu  Cu3379    1.0  0.50000  0.91667  0.33333  1.0000
  Cu  Cu3380    1.0  0.50000  0.91667  0.41667  1.0000
  Cu  Cu3381    1.0  0.42857  0.86112  0.37500  1.0000
  Cu  Cu3382    1.0  0.42857  0.97222  0.45833  1.0000
  Cu  Cu3383    1.0  0.50000  0.94445  0.37500  1.0000
  Cu  Cu3384    1.0  0.50000  0.88888  0.45833  1.0000
  Cu  Cu3385    1.0  0.44286  0.91437  0.53333  1.0000
  Cu  Cu3386    1.0  0.55714  0.91897  0.63333  1.0000
  Cu  Cu3387    1.0  0.55714  0.91437  0.55000  1.0000
  Cu  Cu3388    1.0  0.44286  0.91897  0.61667  1.0000
  Cu  Cu3389    1.0  0.51429  0.99770  0.53333  1.0000
  Cu  Cu3390    1.0  0.48571  0.83563  0.63333  1.0000
  Cu  Cu3391    1.0  0.48571  0.99770  0.55000  1.0000
  Cu  Cu3392    1.0  0.51429  0.83563  0.61667  1.0000
  Cu  Cu3393    1.0  0.47201  0.91782  0.60138  1.0000
  Cu  Cu3394    1.0  0.52799  0.91552  0.56528  1.0000
  Cu  Cu3395    1.0  0.52799  0.91782  0.64862  1.0000
  Cu  Cu3396    1.0  0.47201  0.91552  0.51805  1.0000
  Cu  Cu3397    1.0  0.54344  0.83448  0.60138  1.0000
  Cu  Cu3398    1.0  0.45656  0.99885  0.56528  1.0000
  Cu  Cu3399    1.0  0.45656  0.83448  0.64862  1.0000
  Cu  Cu3400    1.0  0.54344  0.99885  0.51805  1.0000
  Cu  Cu3401    1.0  0.42857  0.83333  0.50000  1.0000
  Cu  Cu3402    1.0  0.42857  0.83333  0.58333  1.0000
  Cu  Cu3403    1.0  0.50000  0.91667  0.50000  1.0000
  Cu  Cu3404    1.0  0.50000  0.91667  0.58333  1.0000
  Cu  Cu3405    1.0  0.42857  0.86112  0.54167  1.0000
  Cu  Cu3406    1.0  0.42857  0.97222  0.62500  1.0000
  Cu  Cu3407    1.0  0.50000  0.94445  0.54167  1.0000
  Cu  Cu3408    1.0  0.50000  0.88888  0.62500  1.0000
  Cu  Cu3409    1.0  0.44286  0.91437  0.70000  1.0000
  Cu  Cu3410    1.0  0.55714  0.91897  0.80000  1.0000
  Cu  Cu3411    1.0  0.55714  0.91437  0.71667  1.0000
  Cu  Cu3412    1.0  0.44286  0.91897  0.78333  1.0000
  Cu  Cu3413    1.0  0.51429  0.99770  0.70000  1.0000
  Cu  Cu3414    1.0  0.48571  0.83563  0.80000  1.0000
  Cu  Cu3415    1.0  0.48571  0.99770  0.71667  1.0000
  Cu  Cu3416    1.0  0.51429  0.83563  0.78333  1.0000
  Cu  Cu3417    1.0  0.47201  0.91782  0.76805  1.0000
  Cu  Cu3418    1.0  0.52799  0.91552  0.73195  1.0000
  Cu  Cu3419    1.0  0.52799  0.91782  0.81528  1.0000
  Cu  Cu3420    1.0  0.47201  0.91552  0.68472  1.0000
  Cu  Cu3421    1.0  0.54344  0.83448  0.76805  1.0000
  Cu  Cu3422    1.0  0.45656  0.99885  0.73195  1.0000
  Cu  Cu3423    1.0  0.45656  0.83448  0.81528  1.0000
  Cu  Cu3424    1.0  0.54344  0.99885  0.68472  1.0000
  Cu  Cu3425    1.0  0.42857  0.83333  0.66667  1.0000
  Cu  Cu3426    1.0  0.42857  0.83333  0.75000  1.0000
  Cu  Cu3427    1.0  0.50000  0.91667  0.66667  1.0000
  Cu  Cu3428    1.0  0.50000  0.91667  0.75000  1.0000
  Cu  Cu3429    1.0  0.42857  0.86112  0.70833  1.0000
  Cu  Cu3430    1.0  0.42857  0.97222  0.79167  1.0000
  Cu  Cu3431    1.0  0.50000  0.94445  0.70833  1.0000
  Cu  Cu3432    1.0  0.50000  0.88888  0.79167  1.0000
  Cu  Cu3433    1.0  0.44286  0.91437  0.86667  1.0000
  Cu  Cu3434    1.0  0.55714  0.91897  0.96667  1.0000
  Cu  Cu3435    1.0  0.55714  0.91437  0.88333  1.0000
  Cu  Cu3436    1.0  0.44286  0.91897  0.95000  1.0000
  Cu  Cu3437    1.0  0.51429  0.99770  0.86667  1.0000
  Cu  Cu3438    1.0  0.48571  0.83563  0.96667  1.0000
  Cu  Cu3439    1.0  0.48571  0.99770  0.88333  1.0000
  Cu  Cu3440    1.0  0.51429  0.83563  0.95000  1.0000
  Cu  Cu3441    1.0  0.47201  0.91782  0.93472  1.0000
  Cu  Cu3442    1.0  0.52799  0.91552  0.89862  1.0000
  Cu  Cu3443    1.0  0.52799  0.91782  0.98195  1.0000
  Cu  Cu3444    1.0  0.47201  0.91552  0.85138  1.0000
  Cu  Cu3445    1.0  0.54344  0.83448  0.93472  1.0000
  Cu  Cu3446    1.0  0.45656  0.99885  0.89862  1.0000
  Cu  Cu3447    1.0  0.45656  0.83448  0.98195  1.0000
  Cu  Cu3448    1.0  0.54344  0.99885  0.85138  1.0000
  Cu  Cu3449    1.0  0.42857  0.83333  0.83333  1.0000
  Cu  Cu3450    1.0  0.42857  0.83333  0.91667  1.0000
  Cu  Cu3451    1.0  0.50000  0.91667  0.83333  1.0000
  Cu  Cu3452    1.0  0.50000  0.91667  0.91667  1.0000
  Cu  Cu3453    1.0  0.42857  0.86112  0.87500  1.0000
  Cu  Cu3454    1.0  0.42857  0.97222  0.95833  1.0000
  Cu  Cu3455    1.0  0.50000  0.94445  0.87500  1.0000
  Cu  Cu3456    1.0  0.50000  0.88888  0.95833  1.0000
  Cu  Cu3457    1.0  0.58571  0.08103  0.03333  1.0000
  Cu  Cu3458    1.0  0.70000  0.08563  0.13333  1.0000
  Cu  Cu3459    1.0  0.70000  0.08103  0.05000  1.0000
  Cu  Cu3460    1.0  0.58571  0.08563  0.11667  1.0000
  Cu  Cu3461    1.0  0.65714  0.16437  0.03333  1.0000
  Cu  Cu3462    1.0  0.62857  0.00230  0.13333  1.0000
  Cu  Cu3463    1.0  0.62857  0.16437  0.05000  1.0000
  Cu  Cu3464    1.0  0.65714  0.00230  0.11667  1.0000
  Cu  Cu3465    1.0  0.61487  0.08448  0.10138  1.0000
  Cu  Cu3466    1.0  0.67084  0.08218  0.06528  1.0000
  Cu  Cu3467    1.0  0.67084  0.08448  0.14862  1.0000
  Cu  Cu3468    1.0  0.61487  0.08218  0.01805  1.0000
  Cu  Cu3469    1.0  0.68630  0.00115  0.10138  1.0000
  Cu  Cu3470    1.0  0.59941  0.16552  0.06528  1.0000
  Cu  Cu3471    1.0  0.59941  0.00115  0.14862  1.0000
  Cu  Cu3472    1.0  0.68630  0.16552  0.01805  1.0000
  Cu  Cu3473    1.0  0.57143  0.00000  0.00000  1.0000
  Cu  Cu3474    1.0  0.57143  0.00000  0.08333  1.0000
  Cu  Cu3475    1.0  0.64286  0.08333  0.00000  1.0000
  Cu  Cu3476    1.0  0.64286  0.08333  0.08333  1.0000
  Cu  Cu3477    1.0  0.57143  0.02778  0.04167  1.0000
  Cu  Cu3478    1.0  0.57143  0.13888  0.12500  1.0000
  Cu  Cu3479    1.0  0.64286  0.11112  0.04167  1.0000
  Cu  Cu3480    1.0  0.64286  0.05555  0.12500  1.0000
  Cu  Cu3481    1.0  0.58571  0.08103  0.20000  1.0000
  Cu  Cu3482    1.0  0.70000  0.08563  0.30000  1.0000
  Cu  Cu3483    1.0  0.70000  0.08103  0.21667  1.0000
  Cu  Cu3484    1.0  0.58571  0.08563  0.28333  1.0000
  Cu  Cu3485    1.0  0.65714  0.16437  0.20000  1.0000
  Cu  Cu3486    1.0  0.62857  0.00230  0.30000  1.0000
  Cu  Cu3487    1.0  0.62857  0.16437  0.21667  1.0000
  Cu  Cu3488    1.0  0.65714  0.00230  0.28333  1.0000
  Cu  Cu3489    1.0  0.61487  0.08448  0.26805  1.0000
  Cu  Cu3490    1.0  0.67084  0.08218  0.23195  1.0000
  Cu  Cu3491    1.0  0.67084  0.08448  0.31528  1.0000
  Cu  Cu3492    1.0  0.61487  0.08218  0.18472  1.0000
  Cu  Cu3493    1.0  0.68630  0.00115  0.26805  1.0000
  Cu  Cu3494    1.0  0.59941  0.16552  0.23195  1.0000
  Cu  Cu3495    1.0  0.59941  0.00115  0.31528  1.0000
  Cu  Cu3496    1.0  0.68630  0.16552  0.18472  1.0000
  Cu  Cu3497    1.0  0.57143  0.00000  0.16667  1.0000
  Cu  Cu3498    1.0  0.57143  0.00000  0.25000  1.0000
  Cu  Cu3499    1.0  0.64286  0.08333  0.16667  1.0000
  Cu  Cu3500    1.0  0.64286  0.08333  0.25000  1.0000
  Cu  Cu3501    1.0  0.57143  0.02778  0.20833  1.0000
  Cu  Cu3502    1.0  0.57143  0.13888  0.29167  1.0000
  Cu  Cu3503    1.0  0.64286  0.11112  0.20833  1.0000
  Cu  Cu3504    1.0  0.64286  0.05555  0.29167  1.0000
  Cu  Cu3505    1.0  0.58571  0.08103  0.36667  1.0000
  Cu  Cu3506    1.0  0.70000  0.08563  0.46667  1.0000
  Cu  Cu3507    1.0  0.70000  0.08103  0.38333  1.0000
  Cu  Cu3508    1.0  0.58571  0.08563  0.45000  1.0000
  Cu  Cu3509    1.0  0.65714  0.16437  0.36667  1.0000
  Cu  Cu3510    1.0  0.62857  0.00230  0.46667  1.0000
  Cu  Cu3511    1.0  0.62857  0.16437  0.38333  1.0000
  Cu  Cu3512    1.0  0.65714  0.00230  0.45000  1.0000
  Cu  Cu3513    1.0  0.61487  0.08448  0.43472  1.0000
  Cu  Cu3514    1.0  0.67084  0.08218  0.39862  1.0000
  Cu  Cu3515    1.0  0.67084  0.08448  0.48195  1.0000
  Cu  Cu3516    1.0  0.61487  0.08218  0.35138  1.0000
  Cu  Cu3517    1.0  0.68630  0.00115  0.43472  1.0000
  Cu  Cu3518    1.0  0.59941  0.16552  0.39862  1.0000
  Cu  Cu3519    1.0  0.59941  0.00115  0.48195  1.0000
  Cu  Cu3520    1.0  0.68630  0.16552  0.35138  1.0000
  Cu  Cu3521    1.0  0.57143  0.00000  0.33333  1.0000
  Cu  Cu3522    1.0  0.57143  0.00000  0.41667  1.0000
  Cu  Cu3523    1.0  0.64286  0.08333  0.33333  1.0000
  Cu  Cu3524    1.0  0.64286  0.08333  0.41667  1.0000
  Cu  Cu3525    1.0  0.57143  0.02778  0.37500  1.0000
  Cu  Cu3526    1.0  0.57143  0.13888  0.45833  1.0000
  Cu  Cu3527    1.0  0.64286  0.11112  0.37500  1.0000
  Cu  Cu3528    1.0  0.64286  0.05555  0.45833  1.0000
  Cu  Cu3529    1.0  0.58571  0.08103  0.53333  1.0000
  Cu  Cu3530    1.0  0.70000  0.08563  0.63333  1.0000
  Cu  Cu3531    1.0  0.70000  0.08103  0.55000  1.0000
  Cu  Cu3532    1.0  0.58571  0.08563  0.61667  1.0000
  Cu  Cu3533    1.0  0.65714  0.16437  0.53333  1.0000
  Cu  Cu3534    1.0  0.62857  0.00230  0.63333  1.0000
  Cu  Cu3535    1.0  0.62857  0.16437  0.55000  1.0000
  Cu  Cu3536    1.0  0.65714  0.00230  0.61667  1.0000
  Cu  Cu3537    1.0  0.61487  0.08448  0.60138  1.0000
  Cu  Cu3538    1.0  0.67084  0.08218  0.56528  1.0000
  Cu  Cu3539    1.0  0.67084  0.08448  0.64862  1.0000
  Cu  Cu3540    1.0  0.61487  0.08218  0.51805  1.0000
  Cu  Cu3541    1.0  0.68630  0.00115  0.60138  1.0000
  Cu  Cu3542    1.0  0.59941  0.16552  0.56528  1.0000
  Cu  Cu3543    1.0  0.59941  0.00115  0.64862  1.0000
  Cu  Cu3544    1.0  0.68630  0.16552  0.51805  1.0000
  Cu  Cu3545    1.0  0.57143  0.00000  0.50000  1.0000
  Cu  Cu3546    1.0  0.57143  0.00000  0.58333  1.0000
  Cu  Cu3547    1.0  0.64286  0.08333  0.50000  1.0000
  Cu  Cu3548    1.0  0.64286  0.08333  0.58333  1.0000
  Cu  Cu3549    1.0  0.57143  0.02778  0.54167  1.0000
  Cu  Cu3550    1.0  0.57143  0.13888  0.62500  1.0000
  Cu  Cu3551    1.0  0.64286  0.11112  0.54167  1.0000
  Cu  Cu3552    1.0  0.64286  0.05555  0.62500  1.0000
  Cu  Cu3553    1.0  0.58571  0.08103  0.70000  1.0000
  Cu  Cu3554    1.0  0.70000  0.08563  0.80000  1.0000
  Cu  Cu3555    1.0  0.70000  0.08103  0.71667  1.0000
  Cu  Cu3556    1.0  0.58571  0.08563  0.78333  1.0000
  Cu  Cu3557    1.0  0.65714  0.16437  0.70000  1.0000
  Cu  Cu3558    1.0  0.62857  0.00230  0.80000  1.0000
  Cu  Cu3559    1.0  0.62857  0.16437  0.71667  1.0000
  Cu  Cu3560    1.0  0.65714  0.00230  0.78333  1.0000
  Cu  Cu3561    1.0  0.61487  0.08448  0.76805  1.0000
  Cu  Cu3562    1.0  0.67084  0.08218  0.73195  1.0000
  Cu  Cu3563    1.0  0.67084  0.08448  0.81528  1.0000
  Cu  Cu3564    1.0  0.61487  0.08218  0.68472  1.0000
  Cu  Cu3565    1.0  0.68630  0.00115  0.76805  1.0000
  Cu  Cu3566    1.0  0.59941  0.16552  0.73195  1.0000
  Cu  Cu3567    1.0  0.59941  0.00115  0.81528  1.0000
  Cu  Cu3568    1.0  0.68630  0.16552  0.68472  1.0000
  Cu  Cu3569    1.0  0.57143  0.00000  0.66667  1.0000
  Cu  Cu3570    1.0  0.57143  0.00000  0.75000  1.0000
  Cu  Cu3571    1.0  0.64286  0.08333  0.66667  1.0000
  Cu  Cu3572    1.0  0.64286  0.08333  0.75000  1.0000
  Cu  Cu3573    1.0  0.57143  0.02778  0.70833  1.0000
  Cu  Cu3574    1.0  0.57143  0.13888  0.79167  1.0000
  Cu  Cu3575    1.0  0.64286  0.11112  0.70833  1.0000
  Cu  Cu3576    1.0  0.64286  0.05555  0.79167  1.0000
  Cu  Cu3577    1.0  0.58571  0.08103  0.86667  1.0000
  Cu  Cu3578    1.0  0.70000  0.08563  0.96667  1.0000
  Cu  Cu3579    1.0  0.70000  0.08103  0.88333  1.0000
  Cu  Cu3580    1.0  0.58571  0.08563  0.95000  1.0000
  Cu  Cu3581    1.0  0.65714  0.16437  0.86667  1.0000
  Cu  Cu3582    1.0  0.62857  0.00230  0.96667  1.0000
  Cu  Cu3583    1.0  0.62857  0.16437  0.88333  1.0000
  Cu  Cu3584    1.0  0.65714  0.00230  0.95000  1.0000
  Cu  Cu3585    1.0  0.61487  0.08448  0.93472  1.0000
  Cu  Cu3586    1.0  0.67084  0.08218  0.89862  1.0000
  Cu  Cu3587    1.0  0.67084  0.08448  0.98195  1.0000
  Cu  Cu3588    1.0  0.61487  0.08218  0.85138  1.0000
  Cu  Cu3589    1.0  0.68630  0.00115  0.93472  1.0000
  Cu  Cu3590    1.0  0.59941  0.16552  0.89862  1.0000
  Cu  Cu3591    1.0  0.59941  0.00115  0.98195  1.0000
  Cu  Cu3592    1.0  0.68630  0.16552  0.85138  1.0000
  Cu  Cu3593    1.0  0.57143  0.00000  0.83333  1.0000
  Cu  Cu3594    1.0  0.57143  0.00000  0.91667  1.0000
  Cu  Cu3595    1.0  0.64286  0.08333  0.83333  1.0000
  Cu  Cu3596    1.0  0.64286  0.08333  0.91667  1.0000
  Cu  Cu3597    1.0  0.57143  0.02778  0.87500  1.0000
  Cu  Cu3598    1.0  0.57143  0.13888  0.95833  1.0000
  Cu  Cu3599    1.0  0.64286  0.11112  0.87500  1.0000
  Cu  Cu3600    1.0  0.64286  0.05555  0.95833  1.0000
  Cu  Cu3601    1.0  0.58571  0.24770  0.03333  1.0000
  Cu  Cu3602    1.0  0.70000  0.25230  0.13333  1.0000
  Cu  Cu3603    1.0  0.70000  0.24770  0.05000  1.0000
  Cu  Cu3604    1.0  0.58571  0.25230  0.11667  1.0000
  Cu  Cu3605    1.0  0.65714  0.33103  0.03333  1.0000
  Cu  Cu3606    1.0  0.62857  0.16897  0.13333  1.0000
  Cu  Cu3607    1.0  0.62857  0.33103  0.05000  1.0000
  Cu  Cu3608    1.0  0.65714  0.16897  0.11667  1.0000
  Cu  Cu3609    1.0  0.61487  0.25115  0.10138  1.0000
  Cu  Cu3610    1.0  0.67084  0.24885  0.06528  1.0000
  Cu  Cu3611    1.0  0.67084  0.25115  0.14862  1.0000
  Cu  Cu3612    1.0  0.61487  0.24885  0.01805  1.0000
  Cu  Cu3613    1.0  0.68630  0.16782  0.10138  1.0000
  Cu  Cu3614    1.0  0.59941  0.33218  0.06528  1.0000
  Cu  Cu3615    1.0  0.59941  0.16782  0.14862  1.0000
  Cu  Cu3616    1.0  0.68630  0.33218  0.01805  1.0000
  Cu  Cu3617    1.0  0.57143  0.16667  0.00000  1.0000
  Cu  Cu3618    1.0  0.57143  0.16667  0.08333  1.0000
  Cu  Cu3619    1.0  0.64286  0.25000  0.00000  1.0000
  Cu  Cu3620    1.0  0.64286  0.25000  0.08333  1.0000
  Cu  Cu3621    1.0  0.57143  0.19445  0.04167  1.0000
  Cu  Cu3622    1.0  0.57143  0.30555  0.12500  1.0000
  Cu  Cu3623    1.0  0.64286  0.27778  0.04167  1.0000
  Cu  Cu3624    1.0  0.64286  0.22222  0.12500  1.0000
  Cu  Cu3625    1.0  0.58571  0.24770  0.20000  1.0000
  Cu  Cu3626    1.0  0.70000  0.25230  0.30000  1.0000
  Cu  Cu3627    1.0  0.70000  0.24770  0.21667  1.0000
  Cu  Cu3628    1.0  0.58571  0.25230  0.28333  1.0000
  Cu  Cu3629    1.0  0.65714  0.33103  0.20000  1.0000
  Cu  Cu3630    1.0  0.62857  0.16897  0.30000  1.0000
  Cu  Cu3631    1.0  0.62857  0.33103  0.21667  1.0000
  Cu  Cu3632    1.0  0.65714  0.16897  0.28333  1.0000
  Cu  Cu3633    1.0  0.61487  0.25115  0.26805  1.0000
  Cu  Cu3634    1.0  0.67084  0.24885  0.23195  1.0000
  Cu  Cu3635    1.0  0.67084  0.25115  0.31528  1.0000
  Cu  Cu3636    1.0  0.61487  0.24885  0.18472  1.0000
  Cu  Cu3637    1.0  0.68630  0.16782  0.26805  1.0000
  Cu  Cu3638    1.0  0.59941  0.33218  0.23195  1.0000
  Cu  Cu3639    1.0  0.59941  0.16782  0.31528  1.0000
  Cu  Cu3640    1.0  0.68630  0.33218  0.18472  1.0000
  Cu  Cu3641    1.0  0.57143  0.16667  0.16667  1.0000
  Cu  Cu3642    1.0  0.57143  0.16667  0.25000  1.0000
  Cu  Cu3643    1.0  0.64286  0.25000  0.16667  1.0000
  Cu  Cu3644    1.0  0.64286  0.25000  0.25000  1.0000
  Cu  Cu3645    1.0  0.57143  0.19445  0.20833  1.0000
  Cu  Cu3646    1.0  0.57143  0.30555  0.29167  1.0000
  Cu  Cu3647    1.0  0.64286  0.27778  0.20833  1.0000
  Cu  Cu3648    1.0  0.64286  0.22222  0.29167  1.0000
  Cu  Cu3649    1.0  0.58571  0.24770  0.36667  1.0000
  Cu  Cu3650    1.0  0.70000  0.25230  0.46667  1.0000
  Cu  Cu3651    1.0  0.70000  0.24770  0.38333  1.0000
  Cu  Cu3652    1.0  0.58571  0.25230  0.45000  1.0000
  Cu  Cu3653    1.0  0.65714  0.33103  0.36667  1.0000
  Cu  Cu3654    1.0  0.62857  0.16897  0.46667  1.0000
  Cu  Cu3655    1.0  0.62857  0.33103  0.38333  1.0000
  Cu  Cu3656    1.0  0.65714  0.16897  0.45000  1.0000
  Cu  Cu3657    1.0  0.61487  0.25115  0.43472  1.0000
  Cu  Cu3658    1.0  0.67084  0.24885  0.39862  1.0000
  Cu  Cu3659    1.0  0.67084  0.25115  0.48195  1.0000
  Cu  Cu3660    1.0  0.61487  0.24885  0.35138  1.0000
  Cu  Cu3661    1.0  0.68630  0.16782  0.43472  1.0000
  Cu  Cu3662    1.0  0.59941  0.33218  0.39862  1.0000
  Cu  Cu3663    1.0  0.59941  0.16782  0.48195  1.0000
  Cu  Cu3664    1.0  0.68630  0.33218  0.35138  1.0000
  Cu  Cu3665    1.0  0.57143  0.16667  0.33333  1.0000
  Cu  Cu3666    1.0  0.57143  0.16667  0.41667  1.0000
  Cu  Cu3667    1.0  0.64286  0.25000  0.33333  1.0000
  Cu  Cu3668    1.0  0.64286  0.25000  0.41667  1.0000
  Cu  Cu3669    1.0  0.57143  0.19445  0.37500  1.0000
  Cu  Cu3670    1.0  0.57143  0.30555  0.45833  1.0000
  Cu  Cu3671    1.0  0.64286  0.27778  0.37500  1.0000
  Cu  Cu3672    1.0  0.64286  0.22222  0.45833  1.0000
  Cu  Cu3673    1.0  0.58571  0.24770  0.53333  1.0000
  Cu  Cu3674    1.0  0.70000  0.25230  0.63333  1.0000
  Cu  Cu3675    1.0  0.70000  0.24770  0.55000  1.0000
  Cu  Cu3676    1.0  0.58571  0.25230  0.61667  1.0000
  Cu  Cu3677    1.0  0.65714  0.33103  0.53333  1.0000
  Cu  Cu3678    1.0  0.62857  0.16897  0.63333  1.0000
  Cu  Cu3679    1.0  0.62857  0.33103  0.55000  1.0000
  Cu  Cu3680    1.0  0.65714  0.16897  0.61667  1.0000
  Cu  Cu3681    1.0  0.61487  0.25115  0.60138  1.0000
  Cu  Cu3682    1.0  0.67084  0.24885  0.56528  1.0000
  Cu  Cu3683    1.0  0.67084  0.25115  0.64862  1.0000
  Cu  Cu3684    1.0  0.61487  0.24885  0.51805  1.0000
  Cu  Cu3685    1.0  0.68630  0.16782  0.60138  1.0000
  Cu  Cu3686    1.0  0.59941  0.33218  0.56528  1.0000
  Cu  Cu3687    1.0  0.59941  0.16782  0.64862  1.0000
  Cu  Cu3688    1.0  0.68630  0.33218  0.51805  1.0000
  Cu  Cu3689    1.0  0.57143  0.16667  0.50000  1.0000
  Cu  Cu3690    1.0  0.57143  0.16667  0.58333  1.0000
  Cu  Cu3691    1.0  0.64286  0.25000  0.50000  1.0000
  Cu  Cu3692    1.0  0.64286  0.25000  0.58333  1.0000
  Cu  Cu3693    1.0  0.57143  0.19445  0.54167  1.0000
  Cu  Cu3694    1.0  0.57143  0.30555  0.62500  1.0000
  Cu  Cu3695    1.0  0.64286  0.27778  0.54167  1.0000
  Cu  Cu3696    1.0  0.64286  0.22222  0.62500  1.0000
  Cu  Cu3697    1.0  0.58571  0.24770  0.70000  1.0000
  Cu  Cu3698    1.0  0.70000  0.25230  0.80000  1.0000
  Cu  Cu3699    1.0  0.70000  0.24770  0.71667  1.0000
  Cu  Cu3700    1.0  0.58571  0.25230  0.78333  1.0000
  Cu  Cu3701    1.0  0.65714  0.33103  0.70000  1.0000
  Cu  Cu3702    1.0  0.62857  0.16897  0.80000  1.0000
  Cu  Cu3703    1.0  0.62857  0.33103  0.71667  1.0000
  Cu  Cu3704    1.0  0.65714  0.16897  0.78333  1.0000
  Cu  Cu3705    1.0  0.61487  0.25115  0.76805  1.0000
  Cu  Cu3706    1.0  0.67084  0.24885  0.73195  1.0000
  Cu  Cu3707    1.0  0.67084  0.25115  0.81528  1.0000
  Cu  Cu3708    1.0  0.61487  0.24885  0.68472  1.0000
  Cu  Cu3709    1.0  0.68630  0.16782  0.76805  1.0000
  Cu  Cu3710    1.0  0.59941  0.33218  0.73195  1.0000
  Cu  Cu3711    1.0  0.59941  0.16782  0.81528  1.0000
  Cu  Cu3712    1.0  0.68630  0.33218  0.68472  1.0000
  Cu  Cu3713    1.0  0.57143  0.16667  0.66667  1.0000
  Cu  Cu3714    1.0  0.57143  0.16667  0.75000  1.0000
  Cu  Cu3715    1.0  0.64286  0.25000  0.66667  1.0000
  Cu  Cu3716    1.0  0.64286  0.25000  0.75000  1.0000
  Cu  Cu3717    1.0  0.57143  0.19445  0.70833  1.0000
  Cu  Cu3718    1.0  0.57143  0.30555  0.79167  1.0000
  Cu  Cu3719    1.0  0.64286  0.27778  0.70833  1.0000
  Cu  Cu3720    1.0  0.64286  0.22222  0.79167  1.0000
  Cu  Cu3721    1.0  0.58571  0.24770  0.86667  1.0000
  Cu  Cu3722    1.0  0.70000  0.25230  0.96667  1.0000
  Cu  Cu3723    1.0  0.70000  0.24770  0.88333  1.0000
  Cu  Cu3724    1.0  0.58571  0.25230  0.95000  1.0000
  Cu  Cu3725    1.0  0.65714  0.33103  0.86667  1.0000
  Cu  Cu3726    1.0  0.62857  0.16897  0.96667  1.0000
  Cu  Cu3727    1.0  0.62857  0.33103  0.88333  1.0000
  Cu  Cu3728    1.0  0.65714  0.16897  0.95000  1.0000
  Cu  Cu3729    1.0  0.61487  0.25115  0.93472  1.0000
  Cu  Cu3730    1.0  0.67084  0.24885  0.89862  1.0000
  Cu  Cu3731    1.0  0.67084  0.25115  0.98195  1.0000
  Cu  Cu3732    1.0  0.61487  0.24885  0.85138  1.0000
  Cu  Cu3733    1.0  0.68630  0.16782  0.93472  1.0000
  Cu  Cu3734    1.0  0.59941  0.33218  0.89862  1.0000
  Cu  Cu3735    1.0  0.59941  0.16782  0.98195  1.0000
  Cu  Cu3736    1.0  0.68630  0.33218  0.85138  1.0000
  Cu  Cu3737    1.0  0.57143  0.16667  0.83333  1.0000
  Cu  Cu3738    1.0  0.57143  0.16667  0.91667  1.0000
  Cu  Cu3739    1.0  0.64286  0.25000  0.83333  1.0000
  Cu  Cu3740    1.0  0.64286  0.25000  0.91667  1.0000
  Cu  Cu3741    1.0  0.57143  0.19445  0.87500  1.0000
  Cu  Cu3742    1.0  0.57143  0.30555  0.95833  1.0000
  Cu  Cu3743    1.0  0.64286  0.27778  0.87500  1.0000
  Cu  Cu3744    1.0  0.64286  0.22222  0.95833  1.0000
  Cu  Cu3745    1.0  0.58571  0.41437  0.03333  1.0000
  Cu  Cu3746    1.0  0.70000  0.41897  0.13333  1.0000
  Cu  Cu3747    1.0  0.70000  0.41437  0.05000  1.0000
  Cu  Cu3748    1.0  0.58571  0.41897  0.11667  1.0000
  Cu  Cu3749    1.0  0.65714  0.49770  0.03333  1.0000
  Cu  Cu3750    1.0  0.62857  0.33563  0.13333  1.0000
  Cu  Cu3751    1.0  0.62857  0.49770  0.05000  1.0000
  Cu  Cu3752    1.0  0.65714  0.33563  0.11667  1.0000
  Cu  Cu3753    1.0  0.61487  0.41782  0.10138  1.0000
  Cu  Cu3754    1.0  0.67084  0.41552  0.06528  1.0000
  Cu  Cu3755    1.0  0.67084  0.41782  0.14862  1.0000
  Cu  Cu3756    1.0  0.61487  0.41552  0.01805  1.0000
  Cu  Cu3757    1.0  0.68630  0.33448  0.10138  1.0000
  Cu  Cu3758    1.0  0.59941  0.49885  0.06528  1.0000
  Cu  Cu3759    1.0  0.59941  0.33448  0.14862  1.0000
  Cu  Cu3760    1.0  0.68630  0.49885  0.01805  1.0000
  Cu  Cu3761    1.0  0.57143  0.33333  0.00000  1.0000
  Cu  Cu3762    1.0  0.57143  0.33333  0.08333  1.0000
  Cu  Cu3763    1.0  0.64286  0.41667  0.00000  1.0000
  Cu  Cu3764    1.0  0.64286  0.41667  0.08333  1.0000
  Cu  Cu3765    1.0  0.57143  0.36112  0.04167  1.0000
  Cu  Cu3766    1.0  0.57143  0.47222  0.12500  1.0000
  Cu  Cu3767    1.0  0.64286  0.44445  0.04167  1.0000
  Cu  Cu3768    1.0  0.64286  0.38888  0.12500  1.0000
  Cu  Cu3769    1.0  0.58571  0.41437  0.20000  1.0000
  Cu  Cu3770    1.0  0.70000  0.41897  0.30000  1.0000
  Cu  Cu3771    1.0  0.70000  0.41437  0.21667  1.0000
  Cu  Cu3772    1.0  0.58571  0.41897  0.28333  1.0000
  Cu  Cu3773    1.0  0.65714  0.49770  0.20000  1.0000
  Cu  Cu3774    1.0  0.62857  0.33563  0.30000  1.0000
  Cu  Cu3775    1.0  0.62857  0.49770  0.21667  1.0000
  Cu  Cu3776    1.0  0.65714  0.33563  0.28333  1.0000
  Cu  Cu3777    1.0  0.61487  0.41782  0.26805  1.0000
  Cu  Cu3778    1.0  0.67084  0.41552  0.23195  1.0000
  Cu  Cu3779    1.0  0.67084  0.41782  0.31528  1.0000
  Cu  Cu3780    1.0  0.61487  0.41552  0.18472  1.0000
  Cu  Cu3781    1.0  0.68630  0.33448  0.26805  1.0000
  Cu  Cu3782    1.0  0.59941  0.49885  0.23195  1.0000
  Cu  Cu3783    1.0  0.59941  0.33448  0.31528  1.0000
  Cu  Cu3784    1.0  0.68630  0.49885  0.18472  1.0000
  Cu  Cu3785    1.0  0.57143  0.33333  0.16667  1.0000
  Cu  Cu3786    1.0  0.57143  0.33333  0.25000  1.0000
  Cu  Cu3787    1.0  0.64286  0.41667  0.16667  1.0000
  Cu  Cu3788    1.0  0.64286  0.41667  0.25000  1.0000
  Cu  Cu3789    1.0  0.57143  0.36112  0.20833  1.0000
  Cu  Cu3790    1.0  0.57143  0.47222  0.29167  1.0000
  Cu  Cu3791    1.0  0.64286  0.44445  0.20833  1.0000
  Cu  Cu3792    1.0  0.64286  0.38888  0.29167  1.0000
  Cu  Cu3793    1.0  0.58571  0.41437  0.36667  1.0000
  Cu  Cu3794    1.0  0.70000  0.41897  0.46667  1.0000
  Cu  Cu3795    1.0  0.70000  0.41437  0.38333  1.0000
  Cu  Cu3796    1.0  0.58571  0.41897  0.45000  1.0000
  Cu  Cu3797    1.0  0.65714  0.49770  0.36667  1.0000
  Cu  Cu3798    1.0  0.62857  0.33563  0.46667  1.0000
  Cu  Cu3799    1.0  0.62857  0.49770  0.38333  1.0000
  Cu  Cu3800    1.0  0.65714  0.33563  0.45000  1.0000
  Cu  Cu3801    1.0  0.61487  0.41782  0.43472  1.0000
  Cu  Cu3802    1.0  0.67084  0.41552  0.39862  1.0000
  Cu  Cu3803    1.0  0.67084  0.41782  0.48195  1.0000
  Cu  Cu3804    1.0  0.61487  0.41552  0.35138  1.0000
  Cu  Cu3805    1.0  0.68630  0.33448  0.43472  1.0000
  Cu  Cu3806    1.0  0.59941  0.49885  0.39862  1.0000
  Cu  Cu3807    1.0  0.59941  0.33448  0.48195  1.0000
  Cu  Cu3808    1.0  0.68630  0.49885  0.35138  1.0000
  Cu  Cu3809    1.0  0.57143  0.33333  0.33333  1.0000
  Cu  Cu3810    1.0  0.57143  0.33333  0.41667  1.0000
  Cu  Cu3811    1.0  0.64286  0.41667  0.33333  1.0000
  Cu  Cu3812    1.0  0.64286  0.41667  0.41667  1.0000
  Cu  Cu3813    1.0  0.57143  0.36112  0.37500  1.0000
  Cu  Cu3814    1.0  0.57143  0.47222  0.45833  1.0000
  Cu  Cu3815    1.0  0.64286  0.44445  0.37500  1.0000
  Cu  Cu3816    1.0  0.64286  0.38888  0.45833  1.0000
  Cu  Cu3817    1.0  0.58571  0.41437  0.53333  1.0000
  Cu  Cu3818    1.0  0.70000  0.41897  0.63333  1.0000
  Cu  Cu3819    1.0  0.70000  0.41437  0.55000  1.0000
  Cu  Cu3820    1.0  0.58571  0.41897  0.61667  1.0000
  Cu  Cu3821    1.0  0.65714  0.49770  0.53333  1.0000
  Cu  Cu3822    1.0  0.62857  0.33563  0.63333  1.0000
  Cu  Cu3823    1.0  0.62857  0.49770  0.55000  1.0000
  Cu  Cu3824    1.0  0.65714  0.33563  0.61667  1.0000
  Cu  Cu3825    1.0  0.61487  0.41782  0.60138  1.0000
  Cu  Cu3826    1.0  0.67084  0.41552  0.56528  1.0000
  Cu  Cu3827    1.0  0.67084  0.41782  0.64862  1.0000
  Cu  Cu3828    1.0  0.61487  0.41552  0.51805  1.0000
  Cu  Cu3829    1.0  0.68630  0.33448  0.60138  1.0000
  Cu  Cu3830    1.0  0.59941  0.49885  0.56528  1.0000
  Cu  Cu3831    1.0  0.59941  0.33448  0.64862  1.0000
  Cu  Cu3832    1.0  0.68630  0.49885  0.51805  1.0000
  Cu  Cu3833    1.0  0.57143  0.33333  0.50000  1.0000
  Cu  Cu3834    1.0  0.57143  0.33333  0.58333  1.0000
  Cu  Cu3835    1.0  0.64286  0.41667  0.50000  1.0000
  Cu  Cu3836    1.0  0.64286  0.41667  0.58333  1.0000
  Cu  Cu3837    1.0  0.57143  0.36112  0.54167  1.0000
  Cu  Cu3838    1.0  0.57143  0.47222  0.62500  1.0000
  Cu  Cu3839    1.0  0.64286  0.44445  0.54167  1.0000
  Cu  Cu3840    1.0  0.64286  0.38888  0.62500  1.0000
  Cu  Cu3841    1.0  0.58571  0.41437  0.70000  1.0000
  Cu  Cu3842    1.0  0.70000  0.41897  0.80000  1.0000
  Cu  Cu3843    1.0  0.70000  0.41437  0.71667  1.0000
  Cu  Cu3844    1.0  0.58571  0.41897  0.78333  1.0000
  Cu  Cu3845    1.0  0.65714  0.49770  0.70000  1.0000
  Cu  Cu3846    1.0  0.62857  0.33563  0.80000  1.0000
  Cu  Cu3847    1.0  0.62857  0.49770  0.71667  1.0000
  Cu  Cu3848    1.0  0.65714  0.33563  0.78333  1.0000
  Cu  Cu3849    1.0  0.61487  0.41782  0.76805  1.0000
  Cu  Cu3850    1.0  0.67084  0.41552  0.73195  1.0000
  Cu  Cu3851    1.0  0.67084  0.41782  0.81528  1.0000
  Cu  Cu3852    1.0  0.61487  0.41552  0.68472  1.0000
  Cu  Cu3853    1.0  0.68630  0.33448  0.76805  1.0000
  Cu  Cu3854    1.0  0.59941  0.49885  0.73195  1.0000
  Cu  Cu3855    1.0  0.59941  0.33448  0.81528  1.0000
  Cu  Cu3856    1.0  0.68630  0.49885  0.68472  1.0000
  Cu  Cu3857    1.0  0.57143  0.33333  0.66667  1.0000
  Cu  Cu3858    1.0  0.57143  0.33333  0.75000  1.0000
  Cu  Cu3859    1.0  0.64286  0.41667  0.66667  1.0000
  Cu  Cu3860    1.0  0.64286  0.41667  0.75000  1.0000
  Cu  Cu3861    1.0  0.57143  0.36112  0.70833  1.0000
  Cu  Cu3862    1.0  0.57143  0.47222  0.79167  1.0000
  Cu  Cu3863    1.0  0.64286  0.44445  0.70833  1.0000
  Cu  Cu3864    1.0  0.64286  0.38888  0.79167  1.0000
  Cu  Cu3865    1.0  0.58571  0.41437  0.86667  1.0000
  Cu  Cu3866    1.0  0.70000  0.41897  0.96667  1.0000
  Cu  Cu3867    1.0  0.70000  0.41437  0.88333  1.0000
  Cu  Cu3868    1.0  0.58571  0.41897  0.95000  1.0000
  Cu  Cu3869    1.0  0.65714  0.49770  0.86667  1.0000
  Cu  Cu3870    1.0  0.62857  0.33563  0.96667  1.0000
  Cu  Cu3871    1.0  0.62857  0.49770  0.88333  1.0000
  Cu  Cu3872    1.0  0.65714  0.33563  0.95000  1.0000
  Cu  Cu3873    1.0  0.61487  0.41782  0.93472  1.0000
  Cu  Cu3874    1.0  0.67084  0.41552  0.89862  1.0000
  Cu  Cu3875    1.0  0.67084  0.41782  0.98195  1.0000
  Cu  Cu3876    1.0  0.61487  0.41552  0.85138  1.0000
  Cu  Cu3877    1.0  0.68630  0.33448  0.93472  1.0000
  Cu  Cu3878    1.0  0.59941  0.49885  0.89862  1.0000
  Cu  Cu3879    1.0  0.59941  0.33448  0.98195  1.0000
  Cu  Cu3880    1.0  0.68630  0.49885  0.85138  1.0000
  Cu  Cu3881    1.0  0.57143  0.33333  0.83333  1.0000
  Cu  Cu3882    1.0  0.57143  0.33333  0.91667  1.0000
  Cu  Cu3883    1.0  0.64286  0.41667  0.83333  1.0000
  Cu  Cu3884    1.0  0.64286  0.41667  0.91667  1.0000
  Cu  Cu3885    1.0  0.57143  0.36112  0.87500  1.0000
  Cu  Cu3886    1.0  0.57143  0.47222  0.95833  1.0000
  Cu  Cu3887    1.0  0.64286  0.44445  0.87500  1.0000
  Cu  Cu3888    1.0  0.64286  0.38888  0.95833  1.0000
  Cu  Cu3889    1.0  0.58571  0.58103  0.03333  1.0000
  Cu  Cu3890    1.0  0.70000  0.58563  0.13333  1.0000
  Cu  Cu3891    1.0  0.70000  0.58103  0.05000  1.0000
  Cu  Cu3892    1.0  0.58571  0.58563  0.11667  1.0000
  Cu  Cu3893    1.0  0.65714  0.66437  0.03333  1.0000
  Cu  Cu3894    1.0  0.62857  0.50230  0.13333  1.0000
  Cu  Cu3895    1.0  0.62857  0.66437  0.05000  1.0000
  Cu  Cu3896    1.0  0.65714  0.50230  0.11667  1.0000
  Cu  Cu3897    1.0  0.61487  0.58448  0.10138  1.0000
  Cu  Cu3898    1.0  0.67084  0.58218  0.06528  1.0000
  Cu  Cu3899    1.0  0.67084  0.58448  0.14862  1.0000
  Cu  Cu3900    1.0  0.61487  0.58218  0.01805  1.0000
  Cu  Cu3901    1.0  0.68630  0.50115  0.10138  1.0000
  Cu  Cu3902    1.0  0.59941  0.66552  0.06528  1.0000
  Cu  Cu3903    1.0  0.59941  0.50115  0.14862  1.0000
  Cu  Cu3904    1.0  0.68630  0.66552  0.01805  1.0000
  Cu  Cu3905    1.0  0.57143  0.50000  0.00000  1.0000
  Cu  Cu3906    1.0  0.57143  0.50000  0.08333  1.0000
  Cu  Cu3907    1.0  0.64286  0.58333  0.00000  1.0000
  Cu  Cu3908    1.0  0.64286  0.58333  0.08333  1.0000
  Cu  Cu3909    1.0  0.57143  0.52778  0.04167  1.0000
  Cu  Cu3910    1.0  0.57143  0.63888  0.12500  1.0000
  Cu  Cu3911    1.0  0.64286  0.61112  0.04167  1.0000
  Cu  Cu3912    1.0  0.64286  0.55555  0.12500  1.0000
  Cu  Cu3913    1.0  0.58571  0.58103  0.20000  1.0000
  Cu  Cu3914    1.0  0.70000  0.58563  0.30000  1.0000
  Cu  Cu3915    1.0  0.70000  0.58103  0.21667  1.0000
  Cu  Cu3916    1.0  0.58571  0.58563  0.28333  1.0000
  Cu  Cu3917    1.0  0.65714  0.66437  0.20000  1.0000
  Cu  Cu3918    1.0  0.62857  0.50230  0.30000  1.0000
  Cu  Cu3919    1.0  0.62857  0.66437  0.21667  1.0000
  Cu  Cu3920    1.0  0.65714  0.50230  0.28333  1.0000
  Cu  Cu3921    1.0  0.61487  0.58448  0.26805  1.0000
  Cu  Cu3922    1.0  0.67084  0.58218  0.23195  1.0000
  Cu  Cu3923    1.0  0.67084  0.58448  0.31528  1.0000
  Cu  Cu3924    1.0  0.61487  0.58218  0.18472  1.0000
  Cu  Cu3925    1.0  0.68630  0.50115  0.26805  1.0000
  Cu  Cu3926    1.0  0.59941  0.66552  0.23195  1.0000
  Cu  Cu3927    1.0  0.59941  0.50115  0.31528  1.0000
  Cu  Cu3928    1.0  0.68630  0.66552  0.18472  1.0000
  Cu  Cu3929    1.0  0.57143  0.50000  0.16667  1.0000
  Cu  Cu3930    1.0  0.57143  0.50000  0.25000  1.0000
  Cu  Cu3931    1.0  0.64286  0.58333  0.16667  1.0000
  Cu  Cu3932    1.0  0.64286  0.58333  0.25000  1.0000
  Cu  Cu3933    1.0  0.57143  0.52778  0.20833  1.0000
  Cu  Cu3934    1.0  0.57143  0.63888  0.29167  1.0000
  Cu  Cu3935    1.0  0.64286  0.61112  0.20833  1.0000
  Cu  Cu3936    1.0  0.64286  0.55555  0.29167  1.0000
  Cu  Cu3937    1.0  0.58571  0.58103  0.36667  1.0000
  Cu  Cu3938    1.0  0.70000  0.58563  0.46667  1.0000
  Cu  Cu3939    1.0  0.70000  0.58103  0.38333  1.0000
  Cu  Cu3940    1.0  0.58571  0.58563  0.45000  1.0000
  Cu  Cu3941    1.0  0.65714  0.66437  0.36667  1.0000
  Cu  Cu3942    1.0  0.62857  0.50230  0.46667  1.0000
  Cu  Cu3943    1.0  0.62857  0.66437  0.38333  1.0000
  Cu  Cu3944    1.0  0.65714  0.50230  0.45000  1.0000
  Cu  Cu3945    1.0  0.61487  0.58448  0.43472  1.0000
  Cu  Cu3946    1.0  0.67084  0.58218  0.39862  1.0000
  Cu  Cu3947    1.0  0.67084  0.58448  0.48195  1.0000
  Cu  Cu3948    1.0  0.61487  0.58218  0.35138  1.0000
  Cu  Cu3949    1.0  0.68630  0.50115  0.43472  1.0000
  Cu  Cu3950    1.0  0.59941  0.66552  0.39862  1.0000
  Cu  Cu3951    1.0  0.59941  0.50115  0.48195  1.0000
  Cu  Cu3952    1.0  0.68630  0.66552  0.35138  1.0000
  Cu  Cu3953    1.0  0.57143  0.50000  0.33333  1.0000
  Cu  Cu3954    1.0  0.57143  0.50000  0.41667  1.0000
  Cu  Cu3955    1.0  0.64286  0.58333  0.33333  1.0000
  Cu  Cu3956    1.0  0.64286  0.58333  0.41667  1.0000
  Cu  Cu3957    1.0  0.57143  0.52778  0.37500  1.0000
  Cu  Cu3958    1.0  0.57143  0.63888  0.45833  1.0000
  Cu  Cu3959    1.0  0.64286  0.61112  0.37500  1.0000
  Cu  Cu3960    1.0  0.64286  0.55555  0.45833  1.0000
  Cu  Cu3961    1.0  0.58571  0.58103  0.53333  1.0000
  Cu  Cu3962    1.0  0.70000  0.58563  0.63333  1.0000
  Cu  Cu3963    1.0  0.70000  0.58103  0.55000  1.0000
  Cu  Cu3964    1.0  0.58571  0.58563  0.61667  1.0000
  Cu  Cu3965    1.0  0.65714  0.66437  0.53333  1.0000
  Cu  Cu3966    1.0  0.62857  0.50230  0.63333  1.0000
  Cu  Cu3967    1.0  0.62857  0.66437  0.55000  1.0000
  Cu  Cu3968    1.0  0.65714  0.50230  0.61667  1.0000
  Cu  Cu3969    1.0  0.61487  0.58448  0.60138  1.0000
  Cu  Cu3970    1.0  0.67084  0.58218  0.56528  1.0000
  Cu  Cu3971    1.0  0.67084  0.58448  0.64862  1.0000
  Cu  Cu3972    1.0  0.61487  0.58218  0.51805  1.0000
  Cu  Cu3973    1.0  0.68630  0.50115  0.60138  1.0000
  Cu  Cu3974    1.0  0.59941  0.66552  0.56528  1.0000
  Cu  Cu3975    1.0  0.59941  0.50115  0.64862  1.0000
  Cu  Cu3976    1.0  0.68630  0.66552  0.51805  1.0000
  Cu  Cu3977    1.0  0.57143  0.50000  0.50000  1.0000
  Cu  Cu3978    1.0  0.57143  0.50000  0.58333  1.0000
  Cu  Cu3979    1.0  0.64286  0.58333  0.50000  1.0000
  Cu  Cu3980    1.0  0.64286  0.58333  0.58333  1.0000
  Cu  Cu3981    1.0  0.57143  0.52778  0.54167  1.0000
  Cu  Cu3982    1.0  0.57143  0.63888  0.62500  1.0000
  Cu  Cu3983    1.0  0.64286  0.61112  0.54167  1.0000
  Cu  Cu3984    1.0  0.64286  0.55555  0.62500  1.0000
  Cu  Cu3985    1.0  0.58571  0.58103  0.70000  1.0000
  Cu  Cu3986    1.0  0.70000  0.58563  0.80000  1.0000
  Cu  Cu3987    1.0  0.70000  0.58103  0.71667  1.0000
  Cu  Cu3988    1.0  0.58571  0.58563  0.78333  1.0000
  Cu  Cu3989    1.0  0.65714  0.66437  0.70000  1.0000
  Cu  Cu3990    1.0  0.62857  0.50230  0.80000  1.0000
  Cu  Cu3991    1.0  0.62857  0.66437  0.71667  1.0000
  Cu  Cu3992    1.0  0.65714  0.50230  0.78333  1.0000
  Cu  Cu3993    1.0  0.61487  0.58448  0.76805  1.0000
  Cu  Cu3994    1.0  0.67084  0.58218  0.73195  1.0000
  Cu  Cu3995    1.0  0.67084  0.58448  0.81528  1.0000
  Cu  Cu3996    1.0  0.61487  0.58218  0.68472  1.0000
  Cu  Cu3997    1.0  0.68630  0.50115  0.76805  1.0000
  Cu  Cu3998    1.0  0.59941  0.66552  0.73195  1.0000
  Cu  Cu3999    1.0  0.59941  0.50115  0.81528  1.0000
  Cu  Cu4000    1.0  0.68630  0.66552  0.68472  1.0000
  Cu  Cu4001    1.0  0.57143  0.50000  0.66667  1.0000
  Cu  Cu4002    1.0  0.57143  0.50000  0.75000  1.0000
  Cu  Cu4003    1.0  0.64286  0.58333  0.66667  1.0000
  Cu  Cu4004    1.0  0.64286  0.58333  0.75000  1.0000
  Cu  Cu4005    1.0  0.57143  0.52778  0.70833  1.0000
  Cu  Cu4006    1.0  0.57143  0.63888  0.79167  1.0000
  Cu  Cu4007    1.0  0.64286  0.61112  0.70833  1.0000
  Cu  Cu4008    1.0  0.64286  0.55555  0.79167  1.0000
  Cu  Cu4009    1.0  0.58571  0.58103  0.86667  1.0000
  Cu  Cu4010    1.0  0.70000  0.58563  0.96667  1.0000
  Cu  Cu4011    1.0  0.70000  0.58103  0.88333  1.0000
  Cu  Cu4012    1.0  0.58571  0.58563  0.95000  1.0000
  Cu  Cu4013    1.0  0.65714  0.66437  0.86667  1.0000
  Cu  Cu4014    1.0  0.62857  0.50230  0.96667  1.0000
  Cu  Cu4015    1.0  0.62857  0.66437  0.88333  1.0000
  Cu  Cu4016    1.0  0.65714  0.50230  0.95000  1.0000
  Cu  Cu4017    1.0  0.61487  0.58448  0.93472  1.0000
  Cu  Cu4018    1.0  0.67084  0.58218  0.89862  1.0000
  Cu  Cu4019    1.0  0.67084  0.58448  0.98195  1.0000
  Cu  Cu4020    1.0  0.61487  0.58218  0.85138  1.0000
  Cu  Cu4021    1.0  0.68630  0.50115  0.93472  1.0000
  Cu  Cu4022    1.0  0.59941  0.66552  0.89862  1.0000
  Cu  Cu4023    1.0  0.59941  0.50115  0.98195  1.0000
  Cu  Cu4024    1.0  0.68630  0.66552  0.85138  1.0000
  Cu  Cu4025    1.0  0.57143  0.50000  0.83333  1.0000
  Cu  Cu4026    1.0  0.57143  0.50000  0.91667  1.0000
  Cu  Cu4027    1.0  0.64286  0.58333  0.83333  1.0000
  Cu  Cu4028    1.0  0.64286  0.58333  0.91667  1.0000
  Cu  Cu4029    1.0  0.57143  0.52778  0.87500  1.0000
  Cu  Cu4030    1.0  0.57143  0.63888  0.95833  1.0000
  Cu  Cu4031    1.0  0.64286  0.61112  0.87500  1.0000
  Cu  Cu4032    1.0  0.64286  0.55555  0.95833  1.0000
  Cu  Cu4033    1.0  0.58571  0.74770  0.03333  1.0000
  Cu  Cu4034    1.0  0.70000  0.75230  0.13333  1.0000
  Cu  Cu4035    1.0  0.70000  0.74770  0.05000  1.0000
  Cu  Cu4036    1.0  0.58571  0.75230  0.11667  1.0000
  Cu  Cu4037    1.0  0.65714  0.83103  0.03333  1.0000
  Cu  Cu4038    1.0  0.62857  0.66897  0.13333  1.0000
  Cu  Cu4039    1.0  0.62857  0.83103  0.05000  1.0000
  Cu  Cu4040    1.0  0.65714  0.66897  0.11667  1.0000
  Cu  Cu4041    1.0  0.61487  0.75115  0.10138  1.0000
  Cu  Cu4042    1.0  0.67084  0.74885  0.06528  1.0000
  Cu  Cu4043    1.0  0.67084  0.75115  0.14862  1.0000
  Cu  Cu4044    1.0  0.61487  0.74885  0.01805  1.0000
  Cu  Cu4045    1.0  0.68630  0.66782  0.10138  1.0000
  Cu  Cu4046    1.0  0.59941  0.83218  0.06528  1.0000
  Cu  Cu4047    1.0  0.59941  0.66782  0.14862  1.0000
  Cu  Cu4048    1.0  0.68630  0.83218  0.01805  1.0000
  Cu  Cu4049    1.0  0.57143  0.66667  0.00000  1.0000
  Cu  Cu4050    1.0  0.57143  0.66667  0.08333  1.0000
  Cu  Cu4051    1.0  0.64286  0.75000  0.00000  1.0000
  Cu  Cu4052    1.0  0.64286  0.75000  0.08333  1.0000
  Cu  Cu4053    1.0  0.57143  0.69445  0.04167  1.0000
  Cu  Cu4054    1.0  0.57143  0.80555  0.12500  1.0000
  Cu  Cu4055    1.0  0.64286  0.77778  0.04167  1.0000
  Cu  Cu4056    1.0  0.64286  0.72222  0.12500  1.0000
  Cu  Cu4057    1.0  0.58571  0.74770  0.20000  1.0000
  Cu  Cu4058    1.0  0.70000  0.75230  0.30000  1.0000
  Cu  Cu4059    1.0  0.70000  0.74770  0.21667  1.0000
  Cu  Cu4060    1.0  0.58571  0.75230  0.28333  1.0000
  Cu  Cu4061    1.0  0.65714  0.83103  0.20000  1.0000
  Cu  Cu4062    1.0  0.62857  0.66897  0.30000  1.0000
  Cu  Cu4063    1.0  0.62857  0.83103  0.21667  1.0000
  Cu  Cu4064    1.0  0.65714  0.66897  0.28333  1.0000
  Cu  Cu4065    1.0  0.61487  0.75115  0.26805  1.0000
  Cu  Cu4066    1.0  0.67084  0.74885  0.23195  1.0000
  Cu  Cu4067    1.0  0.67084  0.75115  0.31528  1.0000
  Cu  Cu4068    1.0  0.61487  0.74885  0.18472  1.0000
  Cu  Cu4069    1.0  0.68630  0.66782  0.26805  1.0000
  Cu  Cu4070    1.0  0.59941  0.83218  0.23195  1.0000
  Cu  Cu4071    1.0  0.59941  0.66782  0.31528  1.0000
  Cu  Cu4072    1.0  0.68630  0.83218  0.18472  1.0000
  Cu  Cu4073    1.0  0.57143  0.66667  0.16667  1.0000
  Cu  Cu4074    1.0  0.57143  0.66667  0.25000  1.0000
  Cu  Cu4075    1.0  0.64286  0.75000  0.16667  1.0000
  Cu  Cu4076    1.0  0.64286  0.75000  0.25000  1.0000
  Cu  Cu4077    1.0  0.57143  0.69445  0.20833  1.0000
  Cu  Cu4078    1.0  0.57143  0.80555  0.29167  1.0000
  Cu  Cu4079    1.0  0.64286  0.77778  0.20833  1.0000
  Cu  Cu4080    1.0  0.64286  0.72222  0.29167  1.0000
  Cu  Cu4081    1.0  0.58571  0.74770  0.36667  1.0000
  Cu  Cu4082    1.0  0.70000  0.75230  0.46667  1.0000
  Cu  Cu4083    1.0  0.70000  0.74770  0.38333  1.0000
  Cu  Cu4084    1.0  0.58571  0.75230  0.45000  1.0000
  Cu  Cu4085    1.0  0.65714  0.83103  0.36667  1.0000
  Cu  Cu4086    1.0  0.62857  0.66897  0.46667  1.0000
  Cu  Cu4087    1.0  0.62857  0.83103  0.38333  1.0000
  Cu  Cu4088    1.0  0.65714  0.66897  0.45000  1.0000
  Cu  Cu4089    1.0  0.61487  0.75115  0.43472  1.0000
  Cu  Cu4090    1.0  0.67084  0.74885  0.39862  1.0000
  Cu  Cu4091    1.0  0.67084  0.75115  0.48195  1.0000
  Cu  Cu4092    1.0  0.61487  0.74885  0.35138  1.0000
  Cu  Cu4093    1.0  0.68630  0.66782  0.43472  1.0000
  Cu  Cu4094    1.0  0.59941  0.83218  0.39862  1.0000
  Cu  Cu4095    1.0  0.59941  0.66782  0.48195  1.0000
  Cu  Cu4096    1.0  0.68630  0.83218  0.35138  1.0000
  Cu  Cu4097    1.0  0.57143  0.66667  0.33333  1.0000
  Cu  Cu4098    1.0  0.57143  0.66667  0.41667  1.0000
  Cu  Cu4099    1.0  0.64286  0.75000  0.33333  1.0000
  Cu  Cu4100    1.0  0.64286  0.75000  0.41667  1.0000
  Cu  Cu4101    1.0  0.57143  0.69445  0.37500  1.0000
  Cu  Cu4102    1.0  0.57143  0.80555  0.45833  1.0000
  Cu  Cu4103    1.0  0.64286  0.77778  0.37500  1.0000
  Cu  Cu4104    1.0  0.64286  0.72222  0.45833  1.0000
  Cu  Cu4105    1.0  0.58571  0.74770  0.53333  1.0000
  Cu  Cu4106    1.0  0.70000  0.75230  0.63333  1.0000
  Cu  Cu4107    1.0  0.70000  0.74770  0.55000  1.0000
  Cu  Cu4108    1.0  0.58571  0.75230  0.61667  1.0000
  Cu  Cu4109    1.0  0.65714  0.83103  0.53333  1.0000
  Cu  Cu4110    1.0  0.62857  0.66897  0.63333  1.0000
  Cu  Cu4111    1.0  0.62857  0.83103  0.55000  1.0000
  Cu  Cu4112    1.0  0.65714  0.66897  0.61667  1.0000
  Cu  Cu4113    1.0  0.61487  0.75115  0.60138  1.0000
  Cu  Cu4114    1.0  0.67084  0.74885  0.56528  1.0000
  Cu  Cu4115    1.0  0.67084  0.75115  0.64862  1.0000
  Cu  Cu4116    1.0  0.61487  0.74885  0.51805  1.0000
  Cu  Cu4117    1.0  0.68630  0.66782  0.60138  1.0000
  Cu  Cu4118    1.0  0.59941  0.83218  0.56528  1.0000
  Cu  Cu4119    1.0  0.59941  0.66782  0.64862  1.0000
  Cu  Cu4120    1.0  0.68630  0.83218  0.51805  1.0000
  Cu  Cu4121    1.0  0.57143  0.66667  0.50000  1.0000
  Cu  Cu4122    1.0  0.57143  0.66667  0.58333  1.0000
  Cu  Cu4123    1.0  0.64286  0.75000  0.50000  1.0000
  Cu  Cu4124    1.0  0.64286  0.75000  0.58333  1.0000
  Cu  Cu4125    1.0  0.57143  0.69445  0.54167  1.0000
  Cu  Cu4126    1.0  0.57143  0.80555  0.62500  1.0000
  Cu  Cu4127    1.0  0.64286  0.77778  0.54167  1.0000
  Cu  Cu4128    1.0  0.64286  0.72222  0.62500  1.0000
  Cu  Cu4129    1.0  0.58571  0.74770  0.70000  1.0000
  Cu  Cu4130    1.0  0.70000  0.75230  0.80000  1.0000
  Cu  Cu4131    1.0  0.70000  0.74770  0.71667  1.0000
  Cu  Cu4132    1.0  0.58571  0.75230  0.78333  1.0000
  Cu  Cu4133    1.0  0.65714  0.83103  0.70000  1.0000
  Cu  Cu4134    1.0  0.62857  0.66897  0.80000  1.0000
  Cu  Cu4135    1.0  0.62857  0.83103  0.71667  1.0000
  Cu  Cu4136    1.0  0.65714  0.66897  0.78333  1.0000
  Cu  Cu4137    1.0  0.61487  0.75115  0.76805  1.0000
  Cu  Cu4138    1.0  0.67084  0.74885  0.73195  1.0000
  Cu  Cu4139    1.0  0.67084  0.75115  0.81528  1.0000
  Cu  Cu4140    1.0  0.61487  0.74885  0.68472  1.0000
  Cu  Cu4141    1.0  0.68630  0.66782  0.76805  1.0000
  Cu  Cu4142    1.0  0.59941  0.83218  0.73195  1.0000
  Cu  Cu4143    1.0  0.59941  0.66782  0.81528  1.0000
  Cu  Cu4144    1.0  0.68630  0.83218  0.68472  1.0000
  Cu  Cu4145    1.0  0.57143  0.66667  0.66667  1.0000
  Cu  Cu4146    1.0  0.57143  0.66667  0.75000  1.0000
  Cu  Cu4147    1.0  0.64286  0.75000  0.66667  1.0000
  Cu  Cu4148    1.0  0.64286  0.75000  0.75000  1.0000
  Cu  Cu4149    1.0  0.57143  0.69445  0.70833  1.0000
  Cu  Cu4150    1.0  0.57143  0.80555  0.79167  1.0000
  Cu  Cu4151    1.0  0.64286  0.77778  0.70833  1.0000
  Cu  Cu4152    1.0  0.64286  0.72222  0.79167  1.0000
  Cu  Cu4153    1.0  0.58571  0.74770  0.86667  1.0000
  Cu  Cu4154    1.0  0.70000  0.75230  0.96667  1.0000
  Cu  Cu4155    1.0  0.70000  0.74770  0.88333  1.0000
  Cu  Cu4156    1.0  0.58571  0.75230  0.95000  1.0000
  Cu  Cu4157    1.0  0.65714  0.83103  0.86667  1.0000
  Cu  Cu4158    1.0  0.62857  0.66897  0.96667  1.0000
  Cu  Cu4159    1.0  0.62857  0.83103  0.88333  1.0000
  Cu  Cu4160    1.0  0.65714  0.66897  0.95000  1.0000
  Cu  Cu4161    1.0  0.61487  0.75115  0.93472  1.0000
  Cu  Cu4162    1.0  0.67084  0.74885  0.89862  1.0000
  Cu  Cu4163    1.0  0.67084  0.75115  0.98195  1.0000
  Cu  Cu4164    1.0  0.61487  0.74885  0.85138  1.0000
  Cu  Cu4165    1.0  0.68630  0.66782  0.93472  1.0000
  Cu  Cu4166    1.0  0.59941  0.83218  0.89862  1.0000
  Cu  Cu4167    1.0  0.59941  0.66782  0.98195  1.0000
  Cu  Cu4168    1.0  0.68630  0.83218  0.85138  1.0000
  Cu  Cu4169    1.0  0.57143  0.66667  0.83333  1.0000
  Cu  Cu4170    1.0  0.57143  0.66667  0.91667  1.0000
  Cu  Cu4171    1.0  0.64286  0.75000  0.83333  1.0000
  Cu  Cu4172    1.0  0.64286  0.75000  0.91667  1.0000
  Cu  Cu4173    1.0  0.57143  0.69445  0.87500  1.0000
  Cu  Cu4174    1.0  0.57143  0.80555  0.95833  1.0000
  Cu  Cu4175    1.0  0.64286  0.77778  0.87500  1.0000
  Cu  Cu4176    1.0  0.64286  0.72222  0.95833  1.0000
  Cu  Cu4177    1.0  0.58571  0.91437  0.03333  1.0000
  Cu  Cu4178    1.0  0.70000  0.91897  0.13333  1.0000
  Cu  Cu4179    1.0  0.70000  0.91437  0.05000  1.0000
  Cu  Cu4180    1.0  0.58571  0.91897  0.11667  1.0000
  Cu  Cu4181    1.0  0.65714  0.99770  0.03333  1.0000
  Cu  Cu4182    1.0  0.62857  0.83563  0.13333  1.0000
  Cu  Cu4183    1.0  0.62857  0.99770  0.05000  1.0000
  Cu  Cu4184    1.0  0.65714  0.83563  0.11667  1.0000
  Cu  Cu4185    1.0  0.61487  0.91782  0.10138  1.0000
  Cu  Cu4186    1.0  0.67084  0.91552  0.06528  1.0000
  Cu  Cu4187    1.0  0.67084  0.91782  0.14862  1.0000
  Cu  Cu4188    1.0  0.61487  0.91552  0.01805  1.0000
  Cu  Cu4189    1.0  0.68630  0.83448  0.10138  1.0000
  Cu  Cu4190    1.0  0.59941  0.99885  0.06528  1.0000
  Cu  Cu4191    1.0  0.59941  0.83448  0.14862  1.0000
  Cu  Cu4192    1.0  0.68630  0.99885  0.01805  1.0000
  Cu  Cu4193    1.0  0.57143  0.83333  0.00000  1.0000
  Cu  Cu4194    1.0  0.57143  0.83333  0.08333  1.0000
  Cu  Cu4195    1.0  0.64286  0.91667  0.00000  1.0000
  Cu  Cu4196    1.0  0.64286  0.91667  0.08333  1.0000
  Cu  Cu4197    1.0  0.57143  0.86112  0.04167  1.0000
  Cu  Cu4198    1.0  0.57143  0.97222  0.12500  1.0000
  Cu  Cu4199    1.0  0.64286  0.94445  0.04167  1.0000
  Cu  Cu4200    1.0  0.64286  0.88888  0.12500  1.0000
  Cu  Cu4201    1.0  0.58571  0.91437  0.20000  1.0000
  Cu  Cu4202    1.0  0.70000  0.91897  0.30000  1.0000
  Cu  Cu4203    1.0  0.70000  0.91437  0.21667  1.0000
  Cu  Cu4204    1.0  0.58571  0.91897  0.28333  1.0000
  Cu  Cu4205    1.0  0.65714  0.99770  0.20000  1.0000
  Cu  Cu4206    1.0  0.62857  0.83563  0.30000  1.0000
  Cu  Cu4207    1.0  0.62857  0.99770  0.21667  1.0000
  Cu  Cu4208    1.0  0.65714  0.83563  0.28333  1.0000
  Cu  Cu4209    1.0  0.61487  0.91782  0.26805  1.0000
  Cu  Cu4210    1.0  0.67084  0.91552  0.23195  1.0000
  Cu  Cu4211    1.0  0.67084  0.91782  0.31528  1.0000
  Cu  Cu4212    1.0  0.61487  0.91552  0.18472  1.0000
  Cu  Cu4213    1.0  0.68630  0.83448  0.26805  1.0000
  Cu  Cu4214    1.0  0.59941  0.99885  0.23195  1.0000
  Cu  Cu4215    1.0  0.59941  0.83448  0.31528  1.0000
  Cu  Cu4216    1.0  0.68630  0.99885  0.18472  1.0000
  Cu  Cu4217    1.0  0.57143  0.83333  0.16667  1.0000
  Cu  Cu4218    1.0  0.57143  0.83333  0.25000  1.0000
  Cu  Cu4219    1.0  0.64286  0.91667  0.16667  1.0000
  Cu  Cu4220    1.0  0.64286  0.91667  0.25000  1.0000
  Cu  Cu4221    1.0  0.57143  0.86112  0.20833  1.0000
  Cu  Cu4222    1.0  0.57143  0.97222  0.29167  1.0000
  Cu  Cu4223    1.0  0.64286  0.94445  0.20833  1.0000
  Cu  Cu4224    1.0  0.64286  0.88888  0.29167  1.0000
  Cu  Cu4225    1.0  0.58571  0.91437  0.36667  1.0000
  Cu  Cu4226    1.0  0.70000  0.91897  0.46667  1.0000
  Cu  Cu4227    1.0  0.70000  0.91437  0.38333  1.0000
  Cu  Cu4228    1.0  0.58571  0.91897  0.45000  1.0000
  Cu  Cu4229    1.0  0.65714  0.99770  0.36667  1.0000
  Cu  Cu4230    1.0  0.62857  0.83563  0.46667  1.0000
  Cu  Cu4231    1.0  0.62857  0.99770  0.38333  1.0000
  Cu  Cu4232    1.0  0.65714  0.83563  0.45000  1.0000
  Cu  Cu4233    1.0  0.61487  0.91782  0.43472  1.0000
  Cu  Cu4234    1.0  0.67084  0.91552  0.39862  1.0000
  Cu  Cu4235    1.0  0.67084  0.91782  0.48195  1.0000
  Cu  Cu4236    1.0  0.61487  0.91552  0.35138  1.0000
  Cu  Cu4237    1.0  0.68630  0.83448  0.43472  1.0000
  Cu  Cu4238    1.0  0.59941  0.99885  0.39862  1.0000
  Cu  Cu4239    1.0  0.59941  0.83448  0.48195  1.0000
  Cu  Cu4240    1.0  0.68630  0.99885  0.35138  1.0000
  Cu  Cu4241    1.0  0.57143  0.83333  0.33333  1.0000
  Cu  Cu4242    1.0  0.57143  0.83333  0.41667  1.0000
  Cu  Cu4243    1.0  0.64286  0.91667  0.33333  1.0000
  Cu  Cu4244    1.0  0.64286  0.91667  0.41667  1.0000
  Cu  Cu4245    1.0  0.57143  0.86112  0.37500  1.0000
  Cu  Cu4246    1.0  0.57143  0.97222  0.45833  1.0000
  Cu  Cu4247    1.0  0.64286  0.94445  0.37500  1.0000
  Cu  Cu4248    1.0  0.64286  0.88888  0.45833  1.0000
  Cu  Cu4249    1.0  0.58571  0.91437  0.53333  1.0000
  Cu  Cu4250    1.0  0.70000  0.91897  0.63333  1.0000
  Cu  Cu4251    1.0  0.70000  0.91437  0.55000  1.0000
  Cu  Cu4252    1.0  0.58571  0.91897  0.61667  1.0000
  Cu  Cu4253    1.0  0.65714  0.99770  0.53333  1.0000
  Cu  Cu4254    1.0  0.62857  0.83563  0.63333  1.0000
  Cu  Cu4255    1.0  0.62857  0.99770  0.55000  1.0000
  Cu  Cu4256    1.0  0.65714  0.83563  0.61667  1.0000
  Cu  Cu4257    1.0  0.61487  0.91782  0.60138  1.0000
  Cu  Cu4258    1.0  0.67084  0.91552  0.56528  1.0000
  Cu  Cu4259    1.0  0.67084  0.91782  0.64862  1.0000
  Cu  Cu4260    1.0  0.61487  0.91552  0.51805  1.0000
  Cu  Cu4261    1.0  0.68630  0.83448  0.60138  1.0000
  Cu  Cu4262    1.0  0.59941  0.99885  0.56528  1.0000
  Cu  Cu4263    1.0  0.59941  0.83448  0.64862  1.0000
  Cu  Cu4264    1.0  0.68630  0.99885  0.51805  1.0000
  Cu  Cu4265    1.0  0.57143  0.83333  0.50000  1.0000
  Cu  Cu4266    1.0  0.57143  0.83333  0.58333  1.0000
  Cu  Cu4267    1.0  0.64286  0.91667  0.50000  1.0000
  Cu  Cu4268    1.0  0.64286  0.91667  0.58333  1.0000
  Cu  Cu4269    1.0  0.57143  0.86112  0.54167  1.0000
  Cu  Cu4270    1.0  0.57143  0.97222  0.62500  1.0000
  Cu  Cu4271    1.0  0.64286  0.94445  0.54167  1.0000
  Cu  Cu4272    1.0  0.64286  0.88888  0.62500  1.0000
  Cu  Cu4273    1.0  0.58571  0.91437  0.70000  1.0000
  Cu  Cu4274    1.0  0.70000  0.91897  0.80000  1.0000
  Cu  Cu4275    1.0  0.70000  0.91437  0.71667  1.0000
  Cu  Cu4276    1.0  0.58571  0.91897  0.78333  1.0000
  Cu  Cu4277    1.0  0.65714  0.99770  0.70000  1.0000
  Cu  Cu4278    1.0  0.62857  0.83563  0.80000  1.0000
  Cu  Cu4279    1.0  0.62857  0.99770  0.71667  1.0000
  Cu  Cu4280    1.0  0.65714  0.83563  0.78333  1.0000
  Cu  Cu4281    1.0  0.61487  0.91782  0.76805  1.0000
  Cu  Cu4282    1.0  0.67084  0.91552  0.73195  1.0000
  Cu  Cu4283    1.0  0.67084  0.91782  0.81528  1.0000
  Cu  Cu4284    1.0  0.61487  0.91552  0.68472  1.0000
  Cu  Cu4285    1.0  0.68630  0.83448  0.76805  1.0000
  Cu  Cu4286    1.0  0.59941  0.99885  0.73195  1.0000
  Cu  Cu4287    1.0  0.59941  0.83448  0.81528  1.0000
  Cu  Cu4288    1.0  0.68630  0.99885  0.68472  1.0000
  Cu  Cu4289    1.0  0.57143  0.83333  0.66667  1.0000
  Cu  Cu4290    1.0  0.57143  0.83333  0.75000  1.0000
  Cu  Cu4291    1.0  0.64286  0.91667  0.66667  1.0000
  Cu  Cu4292    1.0  0.64286  0.91667  0.75000  1.0000
  Cu  Cu4293    1.0  0.57143  0.86112  0.70833  1.0000
  Cu  Cu4294    1.0  0.57143  0.97222  0.79167  1.0000
  Cu  Cu4295    1.0  0.64286  0.94445  0.70833  1.0000
  Cu  Cu4296    1.0  0.64286  0.88888  0.79167  1.0000
  Cu  Cu4297    1.0  0.58571  0.91437  0.86667  1.0000
  Cu  Cu4298    1.0  0.70000  0.91897  0.96667  1.0000
  Cu  Cu4299    1.0  0.70000  0.91437  0.88333  1.0000
  Cu  Cu4300    1.0  0.58571  0.91897  0.95000  1.0000
  Cu  Cu4301    1.0  0.65714  0.99770  0.86667  1.0000
  Cu  Cu4302    1.0  0.62857  0.83563  0.96667  1.0000
  Cu  Cu4303    1.0  0.62857  0.99770  0.88333  1.0000
  Cu  Cu4304    1.0  0.65714  0.83563  0.95000  1.0000
  Cu  Cu4305    1.0  0.61487  0.91782  0.93472  1.0000
  Cu  Cu4306    1.0  0.67084  0.91552  0.89862  1.0000
  Cu  Cu4307    1.0  0.67084  0.91782  0.98195  1.0000
  Cu  Cu4308    1.0  0.61487  0.91552  0.85138  1.0000
  Cu  Cu4309    1.0  0.68630  0.83448  0.93472  1.0000
  Cu  Cu4310    1.0  0.59941  0.99885  0.89862  1.0000
  Cu  Cu4311    1.0  0.59941  0.83448  0.98195  1.0000
  Cu  Cu4312    1.0  0.68630  0.99885  0.85138  1.0000
  Cu  Cu4313    1.0  0.57143  0.83333  0.83333  1.0000
  Cu  Cu4314    1.0  0.57143  0.83333  0.91667  1.0000
  Cu  Cu4315    1.0  0.64286  0.91667  0.83333  1.0000
  Cu  Cu4316    1.0  0.64286  0.91667  0.91667  1.0000
  Cu  Cu4317    1.0  0.57143  0.86112  0.87500  1.0000
  Cu  Cu4318    1.0  0.57143  0.97222  0.95833  1.0000
  Cu  Cu4319    1.0  0.64286  0.94445  0.87500  1.0000
  Cu  Cu4320    1.0  0.64286  0.88888  0.95833  1.0000
  Cu  Cu4321    1.0  0.72857  0.08103  0.03333  1.0000
  Cu  Cu4322    1.0  0.84286  0.08563  0.13333  1.0000
  Cu  Cu4323    1.0  0.84286  0.08103  0.05000  1.0000
  Cu  Cu4324    1.0  0.72857  0.08563  0.11667  1.0000
  Cu  Cu4325    1.0  0.80000  0.16437  0.03333  1.0000
  Cu  Cu4326    1.0  0.77143  0.00230  0.13333  1.0000
  Cu  Cu4327    1.0  0.77143  0.16437  0.05000  1.0000
  Cu  Cu4328    1.0  0.80000  0.00230  0.11667  1.0000
  Cu  Cu4329    1.0  0.75773  0.08448  0.10138  1.0000
  Cu  Cu4330    1.0  0.81370  0.08218  0.06528  1.0000
  Cu  Cu4331    1.0  0.81370  0.08448  0.14862  1.0000
  Cu  Cu4332    1.0  0.75773  0.08218  0.01805  1.0000
  Cu  Cu4333    1.0  0.82916  0.00115  0.10138  1.0000
  Cu  Cu4334    1.0  0.74227  0.16552  0.06528  1.0000
  Cu  Cu4335    1.0  0.74227  0.00115  0.14862  1.0000
  Cu  Cu4336    1.0  0.82916  0.16552  0.01805  1.0000
  Cu  Cu4337    1.0  0.71429  0.00000  0.00000  1.0000
  Cu  Cu4338    1.0  0.71429  0.00000  0.08333  1.0000
  Cu  Cu4339    1.0  0.78571  0.08333  0.00000  1.0000
  Cu  Cu4340    1.0  0.78571  0.08333  0.08333  1.0000
  Cu  Cu4341    1.0  0.71429  0.02778  0.04167  1.0000
  Cu  Cu4342    1.0  0.71429  0.13888  0.12500  1.0000
  Cu  Cu4343    1.0  0.78571  0.11112  0.04167  1.0000
  Cu  Cu4344    1.0  0.78571  0.05555  0.12500  1.0000
  Cu  Cu4345    1.0  0.72857  0.08103  0.20000  1.0000
  Cu  Cu4346    1.0  0.84286  0.08563  0.30000  1.0000
  Cu  Cu4347    1.0  0.84286  0.08103  0.21667  1.0000
  Cu  Cu4348    1.0  0.72857  0.08563  0.28333  1.0000
  Cu  Cu4349    1.0  0.80000  0.16437  0.20000  1.0000
  Cu  Cu4350    1.0  0.77143  0.00230  0.30000  1.0000
  Cu  Cu4351    1.0  0.77143  0.16437  0.21667  1.0000
  Cu  Cu4352    1.0  0.80000  0.00230  0.28333  1.0000
  Cu  Cu4353    1.0  0.75773  0.08448  0.26805  1.0000
  Cu  Cu4354    1.0  0.81370  0.08218  0.23195  1.0000
  Cu  Cu4355    1.0  0.81370  0.08448  0.31528  1.0000
  Cu  Cu4356    1.0  0.75773  0.08218  0.18472  1.0000
  Cu  Cu4357    1.0  0.82916  0.00115  0.26805  1.0000
  Cu  Cu4358    1.0  0.74227  0.16552  0.23195  1.0000
  Cu  Cu4359    1.0  0.74227  0.00115  0.31528  1.0000
  Cu  Cu4360    1.0  0.82916  0.16552  0.18472  1.0000
  Cu  Cu4361    1.0  0.71429  0.00000  0.16667  1.0000
  Cu  Cu4362    1.0  0.71429  0.00000  0.25000  1.0000
  Cu  Cu4363    1.0  0.78571  0.08333  0.16667  1.0000
  Cu  Cu4364    1.0  0.78571  0.08333  0.25000  1.0000
  Cu  Cu4365    1.0  0.71429  0.02778  0.20833  1.0000
  Cu  Cu4366    1.0  0.71429  0.13888  0.29167  1.0000
  Cu  Cu4367    1.0  0.78571  0.11112  0.20833  1.0000
  Cu  Cu4368    1.0  0.78571  0.05555  0.29167  1.0000
  Cu  Cu4369    1.0  0.72857  0.08103  0.36667  1.0000
  Cu  Cu4370    1.0  0.84286  0.08563  0.46667  1.0000
  Cu  Cu4371    1.0  0.84286  0.08103  0.38333  1.0000
  Cu  Cu4372    1.0  0.72857  0.08563  0.45000  1.0000
  Cu  Cu4373    1.0  0.80000  0.16437  0.36667  1.0000
  Cu  Cu4374    1.0  0.77143  0.00230  0.46667  1.0000
  Cu  Cu4375    1.0  0.77143  0.16437  0.38333  1.0000
  Cu  Cu4376    1.0  0.80000  0.00230  0.45000  1.0000
  Cu  Cu4377    1.0  0.75773  0.08448  0.43472  1.0000
  Cu  Cu4378    1.0  0.81370  0.08218  0.39862  1.0000
  Cu  Cu4379    1.0  0.81370  0.08448  0.48195  1.0000
  Cu  Cu4380    1.0  0.75773  0.08218  0.35138  1.0000
  Cu  Cu4381    1.0  0.82916  0.00115  0.43472  1.0000
  Cu  Cu4382    1.0  0.74227  0.16552  0.39862  1.0000
  Cu  Cu4383    1.0  0.74227  0.00115  0.48195  1.0000
  Cu  Cu4384    1.0  0.82916  0.16552  0.35138  1.0000
  Cu  Cu4385    1.0  0.71429  0.00000  0.33333  1.0000
  Cu  Cu4386    1.0  0.71429  0.00000  0.41667  1.0000
  Cu  Cu4387    1.0  0.78571  0.08333  0.33333  1.0000
  Cu  Cu4388    1.0  0.78571  0.08333  0.41667  1.0000
  Cu  Cu4389    1.0  0.71429  0.02778  0.37500  1.0000
  Cu  Cu4390    1.0  0.71429  0.13888  0.45833  1.0000
  Cu  Cu4391    1.0  0.78571  0.11112  0.37500  1.0000
  Cu  Cu4392    1.0  0.78571  0.05555  0.45833  1.0000
  Cu  Cu4393    1.0  0.72857  0.08103  0.53333  1.0000
  Cu  Cu4394    1.0  0.84286  0.08563  0.63333  1.0000
  Cu  Cu4395    1.0  0.84286  0.08103  0.55000  1.0000
  Cu  Cu4396    1.0  0.72857  0.08563  0.61667  1.0000
  Cu  Cu4397    1.0  0.80000  0.16437  0.53333  1.0000
  Cu  Cu4398    1.0  0.77143  0.00230  0.63333  1.0000
  Cu  Cu4399    1.0  0.77143  0.16437  0.55000  1.0000
  Cu  Cu4400    1.0  0.80000  0.00230  0.61667  1.0000
  Cu  Cu4401    1.0  0.75773  0.08448  0.60138  1.0000
  Cu  Cu4402    1.0  0.81370  0.08218  0.56528  1.0000
  Cu  Cu4403    1.0  0.81370  0.08448  0.64862  1.0000
  Cu  Cu4404    1.0  0.75773  0.08218  0.51805  1.0000
  Cu  Cu4405    1.0  0.82916  0.00115  0.60138  1.0000
  Cu  Cu4406    1.0  0.74227  0.16552  0.56528  1.0000
  Cu  Cu4407    1.0  0.74227  0.00115  0.64862  1.0000
  Cu  Cu4408    1.0  0.82916  0.16552  0.51805  1.0000
  Cu  Cu4409    1.0  0.71429  0.00000  0.50000  1.0000
  Cu  Cu4410    1.0  0.71429  0.00000  0.58333  1.0000
  Cu  Cu4411    1.0  0.78571  0.08333  0.50000  1.0000
  Cu  Cu4412    1.0  0.78571  0.08333  0.58333  1.0000
  Cu  Cu4413    1.0  0.71429  0.02778  0.54167  1.0000
  Cu  Cu4414    1.0  0.71429  0.13888  0.62500  1.0000
  Cu  Cu4415    1.0  0.78571  0.11112  0.54167  1.0000
  Cu  Cu4416    1.0  0.78571  0.05555  0.62500  1.0000
  Cu  Cu4417    1.0  0.72857  0.08103  0.70000  1.0000
  Cu  Cu4418    1.0  0.84286  0.08563  0.80000  1.0000
  Cu  Cu4419    1.0  0.84286  0.08103  0.71667  1.0000
  Cu  Cu4420    1.0  0.72857  0.08563  0.78333  1.0000
  Cu  Cu4421    1.0  0.80000  0.16437  0.70000  1.0000
  Cu  Cu4422    1.0  0.77143  0.00230  0.80000  1.0000
  Cu  Cu4423    1.0  0.77143  0.16437  0.71667  1.0000
  Cu  Cu4424    1.0  0.80000  0.00230  0.78333  1.0000
  Cu  Cu4425    1.0  0.75773  0.08448  0.76805  1.0000
  Cu  Cu4426    1.0  0.81370  0.08218  0.73195  1.0000
  Cu  Cu4427    1.0  0.81370  0.08448  0.81528  1.0000
  Cu  Cu4428    1.0  0.75773  0.08218  0.68472  1.0000
  Cu  Cu4429    1.0  0.82916  0.00115  0.76805  1.0000
  Cu  Cu4430    1.0  0.74227  0.16552  0.73195  1.0000
  Cu  Cu4431    1.0  0.74227  0.00115  0.81528  1.0000
  Cu  Cu4432    1.0  0.82916  0.16552  0.68472  1.0000
  Cu  Cu4433    1.0  0.71429  0.00000  0.66667  1.0000
  Cu  Cu4434    1.0  0.71429  0.00000  0.75000  1.0000
  Cu  Cu4435    1.0  0.78571  0.08333  0.66667  1.0000
  Cu  Cu4436    1.0  0.78571  0.08333  0.75000  1.0000
  Cu  Cu4437    1.0  0.71429  0.02778  0.70833  1.0000
  Cu  Cu4438    1.0  0.71429  0.13888  0.79167  1.0000
  Cu  Cu4439    1.0  0.78571  0.11112  0.70833  1.0000
  Cu  Cu4440    1.0  0.78571  0.05555  0.79167  1.0000
  Cu  Cu4441    1.0  0.72857  0.08103  0.86667  1.0000
  Cu  Cu4442    1.0  0.84286  0.08563  0.96667  1.0000
  Cu  Cu4443    1.0  0.84286  0.08103  0.88333  1.0000
  Cu  Cu4444    1.0  0.72857  0.08563  0.95000  1.0000
  Cu  Cu4445    1.0  0.80000  0.16437  0.86667  1.0000
  Cu  Cu4446    1.0  0.77143  0.00230  0.96667  1.0000
  Cu  Cu4447    1.0  0.77143  0.16437  0.88333  1.0000
  Cu  Cu4448    1.0  0.80000  0.00230  0.95000  1.0000
  Cu  Cu4449    1.0  0.75773  0.08448  0.93472  1.0000
  Cu  Cu4450    1.0  0.81370  0.08218  0.89862  1.0000
  Cu  Cu4451    1.0  0.81370  0.08448  0.98195  1.0000
  Cu  Cu4452    1.0  0.75773  0.08218  0.85138  1.0000
  Cu  Cu4453    1.0  0.82916  0.00115  0.93472  1.0000
  Cu  Cu4454    1.0  0.74227  0.16552  0.89862  1.0000
  Cu  Cu4455    1.0  0.74227  0.00115  0.98195  1.0000
  Cu  Cu4456    1.0  0.82916  0.16552  0.85138  1.0000
  Cu  Cu4457    1.0  0.71429  0.00000  0.83333  1.0000
  Cu  Cu4458    1.0  0.71429  0.00000  0.91667  1.0000
  Cu  Cu4459    1.0  0.78571  0.08333  0.83333  1.0000
  Cu  Cu4460    1.0  0.78571  0.08333  0.91667  1.0000
  Cu  Cu4461    1.0  0.71429  0.02778  0.87500  1.0000
  Cu  Cu4462    1.0  0.71429  0.13888  0.95833  1.0000
  Cu  Cu4463    1.0  0.78571  0.11112  0.87500  1.0000
  Cu  Cu4464    1.0  0.78571  0.05555  0.95833  1.0000
  Cu  Cu4465    1.0  0.72857  0.24770  0.03333  1.0000
  Cu  Cu4466    1.0  0.84286  0.25230  0.13333  1.0000
  Cu  Cu4467    1.0  0.84286  0.24770  0.05000  1.0000
  Cu  Cu4468    1.0  0.72857  0.25230  0.11667  1.0000
  Cu  Cu4469    1.0  0.80000  0.33103  0.03333  1.0000
  Cu  Cu4470    1.0  0.77143  0.16897  0.13333  1.0000
  Cu  Cu4471    1.0  0.77143  0.33103  0.05000  1.0000
  Cu  Cu4472    1.0  0.80000  0.16897  0.11667  1.0000
  Cu  Cu4473    1.0  0.75773  0.25115  0.10138  1.0000
  Cu  Cu4474    1.0  0.81370  0.24885  0.06528  1.0000
  Cu  Cu4475    1.0  0.81370  0.25115  0.14862  1.0000
  Cu  Cu4476    1.0  0.75773  0.24885  0.01805  1.0000
  Cu  Cu4477    1.0  0.82916  0.16782  0.10138  1.0000
  Cu  Cu4478    1.0  0.74227  0.33218  0.06528  1.0000
  Cu  Cu4479    1.0  0.74227  0.16782  0.14862  1.0000
  Cu  Cu4480    1.0  0.82916  0.33218  0.01805  1.0000
  Cu  Cu4481    1.0  0.71429  0.16667  0.00000  1.0000
  Cu  Cu4482    1.0  0.71429  0.16667  0.08333  1.0000
  Cu  Cu4483    1.0  0.78571  0.25000  0.00000  1.0000
  Cu  Cu4484    1.0  0.78571  0.25000  0.08333  1.0000
  Cu  Cu4485    1.0  0.71429  0.19445  0.04167  1.0000
  Cu  Cu4486    1.0  0.71429  0.30555  0.12500  1.0000
  Cu  Cu4487    1.0  0.78571  0.27778  0.04167  1.0000
  Cu  Cu4488    1.0  0.78571  0.22222  0.12500  1.0000
  Cu  Cu4489    1.0  0.72857  0.24770  0.20000  1.0000
  Cu  Cu4490    1.0  0.84286  0.25230  0.30000  1.0000
  Cu  Cu4491    1.0  0.84286  0.24770  0.21667  1.0000
  Cu  Cu4492    1.0  0.72857  0.25230  0.28333  1.0000
  Cu  Cu4493    1.0  0.80000  0.33103  0.20000  1.0000
  Cu  Cu4494    1.0  0.77143  0.16897  0.30000  1.0000
  Cu  Cu4495    1.0  0.77143  0.33103  0.21667  1.0000
  Cu  Cu4496    1.0  0.80000  0.16897  0.28333  1.0000
  Cu  Cu4497    1.0  0.75773  0.25115  0.26805  1.0000
  Cu  Cu4498    1.0  0.81370  0.24885  0.23195  1.0000
  Cu  Cu4499    1.0  0.81370  0.25115  0.31528  1.0000
  Cu  Cu4500    1.0  0.75773  0.24885  0.18472  1.0000
  Cu  Cu4501    1.0  0.82916  0.16782  0.26805  1.0000
  Cu  Cu4502    1.0  0.74227  0.33218  0.23195  1.0000
  Cu  Cu4503    1.0  0.74227  0.16782  0.31528  1.0000
  Cu  Cu4504    1.0  0.82916  0.33218  0.18472  1.0000
  Cu  Cu4505    1.0  0.71429  0.16667  0.16667  1.0000
  Cu  Cu4506    1.0  0.71429  0.16667  0.25000  1.0000
  Cu  Cu4507    1.0  0.78571  0.25000  0.16667  1.0000
  Cu  Cu4508    1.0  0.78571  0.25000  0.25000  1.0000
  Cu  Cu4509    1.0  0.71429  0.19445  0.20833  1.0000
  Cu  Cu4510    1.0  0.71429  0.30555  0.29167  1.0000
  Cu  Cu4511    1.0  0.78571  0.27778  0.20833  1.0000
  Cu  Cu4512    1.0  0.78571  0.22222  0.29167  1.0000
  Cu  Cu4513    1.0  0.72857  0.24770  0.36667  1.0000
  Cu  Cu4514    1.0  0.84286  0.25230  0.46667  1.0000
  Cu  Cu4515    1.0  0.84286  0.24770  0.38333  1.0000
  Cu  Cu4516    1.0  0.72857  0.25230  0.45000  1.0000
  Cu  Cu4517    1.0  0.80000  0.33103  0.36667  1.0000
  Cu  Cu4518    1.0  0.77143  0.16897  0.46667  1.0000
  Cu  Cu4519    1.0  0.77143  0.33103  0.38333  1.0000
  Cu  Cu4520    1.0  0.80000  0.16897  0.45000  1.0000
  Cu  Cu4521    1.0  0.75773  0.25115  0.43472  1.0000
  Cu  Cu4522    1.0  0.81370  0.24885  0.39862  1.0000
  Cu  Cu4523    1.0  0.81370  0.25115  0.48195  1.0000
  Cu  Cu4524    1.0  0.75773  0.24885  0.35138  1.0000
  Cu  Cu4525    1.0  0.82916  0.16782  0.43472  1.0000
  Cu  Cu4526    1.0  0.74227  0.33218  0.39862  1.0000
  Cu  Cu4527    1.0  0.74227  0.16782  0.48195  1.0000
  Cu  Cu4528    1.0  0.82916  0.33218  0.35138  1.0000
  Cu  Cu4529    1.0  0.71429  0.16667  0.33333  1.0000
  Cu  Cu4530    1.0  0.71429  0.16667  0.41667  1.0000
  Cu  Cu4531    1.0  0.78571  0.25000  0.33333  1.0000
  Cu  Cu4532    1.0  0.78571  0.25000  0.41667  1.0000
  Cu  Cu4533    1.0  0.71429  0.19445  0.37500  1.0000
  Cu  Cu4534    1.0  0.71429  0.30555  0.45833  1.0000
  Cu  Cu4535    1.0  0.78571  0.27778  0.37500  1.0000
  Cu  Cu4536    1.0  0.78571  0.22222  0.45833  1.0000
  Cu  Cu4537    1.0  0.72857  0.24770  0.53333  1.0000
  Cu  Cu4538    1.0  0.84286  0.25230  0.63333  1.0000
  Cu  Cu4539    1.0  0.84286  0.24770  0.55000  1.0000
  Cu  Cu4540    1.0  0.72857  0.25230  0.61667  1.0000
  Cu  Cu4541    1.0  0.80000  0.33103  0.53333  1.0000
  Cu  Cu4542    1.0  0.77143  0.16897  0.63333  1.0000
  Cu  Cu4543    1.0  0.77143  0.33103  0.55000  1.0000
  Cu  Cu4544    1.0  0.80000  0.16897  0.61667  1.0000
  Cu  Cu4545    1.0  0.75773  0.25115  0.60138  1.0000
  Cu  Cu4546    1.0  0.81370  0.24885  0.56528  1.0000
  Cu  Cu4547    1.0  0.81370  0.25115  0.64862  1.0000
  Cu  Cu4548    1.0  0.75773  0.24885  0.51805  1.0000
  Cu  Cu4549    1.0  0.82916  0.16782  0.60138  1.0000
  Cu  Cu4550    1.0  0.74227  0.33218  0.56528  1.0000
  Cu  Cu4551    1.0  0.74227  0.16782  0.64862  1.0000
  Cu  Cu4552    1.0  0.82916  0.33218  0.51805  1.0000
  Cu  Cu4553    1.0  0.71429  0.16667  0.50000  1.0000
  Cu  Cu4554    1.0  0.71429  0.16667  0.58333  1.0000
  Cu  Cu4555    1.0  0.78571  0.25000  0.50000  1.0000
  Cu  Cu4556    1.0  0.78571  0.25000  0.58333  1.0000
  Cu  Cu4557    1.0  0.71429  0.19445  0.54167  1.0000
  Cu  Cu4558    1.0  0.71429  0.30555  0.62500  1.0000
  Cu  Cu4559    1.0  0.78571  0.27778  0.54167  1.0000
  Cu  Cu4560    1.0  0.78571  0.22222  0.62500  1.0000
  Cu  Cu4561    1.0  0.72857  0.24770  0.70000  1.0000
  Cu  Cu4562    1.0  0.84286  0.25230  0.80000  1.0000
  Cu  Cu4563    1.0  0.84286  0.24770  0.71667  1.0000
  Cu  Cu4564    1.0  0.72857  0.25230  0.78333  1.0000
  Cu  Cu4565    1.0  0.80000  0.33103  0.70000  1.0000
  Cu  Cu4566    1.0  0.77143  0.16897  0.80000  1.0000
  Cu  Cu4567    1.0  0.77143  0.33103  0.71667  1.0000
  Cu  Cu4568    1.0  0.80000  0.16897  0.78333  1.0000
  Cu  Cu4569    1.0  0.75773  0.25115  0.76805  1.0000
  Cu  Cu4570    1.0  0.81370  0.24885  0.73195  1.0000
  Cu  Cu4571    1.0  0.81370  0.25115  0.81528  1.0000
  Cu  Cu4572    1.0  0.75773  0.24885  0.68472  1.0000
  Cu  Cu4573    1.0  0.82916  0.16782  0.76805  1.0000
  Cu  Cu4574    1.0  0.74227  0.33218  0.73195  1.0000
  Cu  Cu4575    1.0  0.74227  0.16782  0.81528  1.0000
  Cu  Cu4576    1.0  0.82916  0.33218  0.68472  1.0000
  Cu  Cu4577    1.0  0.71429  0.16667  0.66667  1.0000
  Cu  Cu4578    1.0  0.71429  0.16667  0.75000  1.0000
  Cu  Cu4579    1.0  0.78571  0.25000  0.66667  1.0000
  Cu  Cu4580    1.0  0.78571  0.25000  0.75000  1.0000
  Cu  Cu4581    1.0  0.71429  0.19445  0.70833  1.0000
  Cu  Cu4582    1.0  0.71429  0.30555  0.79167  1.0000
  Cu  Cu4583    1.0  0.78571  0.27778  0.70833  1.0000
  Cu  Cu4584    1.0  0.78571  0.22222  0.79167  1.0000
  Cu  Cu4585    1.0  0.72857  0.24770  0.86667  1.0000
  Cu  Cu4586    1.0  0.84286  0.25230  0.96667  1.0000
  Cu  Cu4587    1.0  0.84286  0.24770  0.88333  1.0000
  Cu  Cu4588    1.0  0.72857  0.25230  0.95000  1.0000
  Cu  Cu4589    1.0  0.80000  0.33103  0.86667  1.0000
  Cu  Cu4590    1.0  0.77143  0.16897  0.96667  1.0000
  Cu  Cu4591    1.0  0.77143  0.33103  0.88333  1.0000
  Cu  Cu4592    1.0  0.80000  0.16897  0.95000  1.0000
  Cu  Cu4593    1.0  0.75773  0.25115  0.93472  1.0000
  Cu  Cu4594    1.0  0.81370  0.24885  0.89862  1.0000
  Cu  Cu4595    1.0  0.81370  0.25115  0.98195  1.0000
  Cu  Cu4596    1.0  0.75773  0.24885  0.85138  1.0000
  Cu  Cu4597    1.0  0.82916  0.16782  0.93472  1.0000
  Cu  Cu4598    1.0  0.74227  0.33218  0.89862  1.0000
  Cu  Cu4599    1.0  0.74227  0.16782  0.98195  1.0000
  Cu  Cu4600    1.0  0.82916  0.33218  0.85138  1.0000
  Cu  Cu4601    1.0  0.71429  0.16667  0.83333  1.0000
  Cu  Cu4602    1.0  0.71429  0.16667  0.91667  1.0000
  Cu  Cu4603    1.0  0.78571  0.25000  0.83333  1.0000
  Cu  Cu4604    1.0  0.78571  0.25000  0.91667  1.0000
  Cu  Cu4605    1.0  0.71429  0.19445  0.87500  1.0000
  Cu  Cu4606    1.0  0.71429  0.30555  0.95833  1.0000
  Cu  Cu4607    1.0  0.78571  0.27778  0.87500  1.0000
  Cu  Cu4608    1.0  0.78571  0.22222  0.95833  1.0000
  Cu  Cu4609    1.0  0.72857  0.41437  0.03333  1.0000
  Cu  Cu4610    1.0  0.84286  0.41897  0.13333  1.0000
  Cu  Cu4611    1.0  0.84286  0.41437  0.05000  1.0000
  Cu  Cu4612    1.0  0.72857  0.41897  0.11667  1.0000
  Cu  Cu4613    1.0  0.80000  0.49770  0.03333  1.0000
  Cu  Cu4614    1.0  0.77143  0.33563  0.13333  1.0000
  Cu  Cu4615    1.0  0.77143  0.49770  0.05000  1.0000
  Cu  Cu4616    1.0  0.80000  0.33563  0.11667  1.0000
  Cu  Cu4617    1.0  0.75773  0.41782  0.10138  1.0000
  Cu  Cu4618    1.0  0.81370  0.41552  0.06528  1.0000
  Cu  Cu4619    1.0  0.81370  0.41782  0.14862  1.0000
  Cu  Cu4620    1.0  0.75773  0.41552  0.01805  1.0000
  Cu  Cu4621    1.0  0.82916  0.33448  0.10138  1.0000
  Cu  Cu4622    1.0  0.74227  0.49885  0.06528  1.0000
  Cu  Cu4623    1.0  0.74227  0.33448  0.14862  1.0000
  Cu  Cu4624    1.0  0.82916  0.49885  0.01805  1.0000
  Cu  Cu4625    1.0  0.71429  0.33333  0.00000  1.0000
  Cu  Cu4626    1.0  0.71429  0.33333  0.08333  1.0000
  Cu  Cu4627    1.0  0.78571  0.41667  0.00000  1.0000
  Cu  Cu4628    1.0  0.78571  0.41667  0.08333  1.0000
  Cu  Cu4629    1.0  0.71429  0.36112  0.04167  1.0000
  Cu  Cu4630    1.0  0.71429  0.47222  0.12500  1.0000
  Cu  Cu4631    1.0  0.78571  0.44445  0.04167  1.0000
  Cu  Cu4632    1.0  0.78571  0.38888  0.12500  1.0000
  Cu  Cu4633    1.0  0.72857  0.41437  0.20000  1.0000
  Cu  Cu4634    1.0  0.84286  0.41897  0.30000  1.0000
  Cu  Cu4635    1.0  0.84286  0.41437  0.21667  1.0000
  Cu  Cu4636    1.0  0.72857  0.41897  0.28333  1.0000
  Cu  Cu4637    1.0  0.80000  0.49770  0.20000  1.0000
  Cu  Cu4638    1.0  0.77143  0.33563  0.30000  1.0000
  Cu  Cu4639    1.0  0.77143  0.49770  0.21667  1.0000
  Cu  Cu4640    1.0  0.80000  0.33563  0.28333  1.0000
  Cu  Cu4641    1.0  0.75773  0.41782  0.26805  1.0000
  Cu  Cu4642    1.0  0.81370  0.41552  0.23195  1.0000
  Cu  Cu4643    1.0  0.81370  0.41782  0.31528  1.0000
  Cu  Cu4644    1.0  0.75773  0.41552  0.18472  1.0000
  Cu  Cu4645    1.0  0.82916  0.33448  0.26805  1.0000
  Cu  Cu4646    1.0  0.74227  0.49885  0.23195  1.0000
  Cu  Cu4647    1.0  0.74227  0.33448  0.31528  1.0000
  Cu  Cu4648    1.0  0.82916  0.49885  0.18472  1.0000
  Cu  Cu4649    1.0  0.71429  0.33333  0.16667  1.0000
  Cu  Cu4650    1.0  0.71429  0.33333  0.25000  1.0000
  Cu  Cu4651    1.0  0.78571  0.41667  0.16667  1.0000
  Cu  Cu4652    1.0  0.78571  0.41667  0.25000  1.0000
  Cu  Cu4653    1.0  0.71429  0.36112  0.20833  1.0000
  Cu  Cu4654    1.0  0.71429  0.47222  0.29167  1.0000
  Cu  Cu4655    1.0  0.78571  0.44445  0.20833  1.0000
  Cu  Cu4656    1.0  0.78571  0.38888  0.29167  1.0000
  Cu  Cu4657    1.0  0.72857  0.41437  0.36667  1.0000
  Cu  Cu4658    1.0  0.84286  0.41897  0.46667  1.0000
  Cu  Cu4659    1.0  0.84286  0.41437  0.38333  1.0000
  Cu  Cu4660    1.0  0.72857  0.41897  0.45000  1.0000
  Cu  Cu4661    1.0  0.80000  0.49770  0.36667  1.0000
  Cu  Cu4662    1.0  0.77143  0.33563  0.46667  1.0000
  Cu  Cu4663    1.0  0.77143  0.49770  0.38333  1.0000
  Cu  Cu4664    1.0  0.80000  0.33563  0.45000  1.0000
  Cu  Cu4665    1.0  0.75773  0.41782  0.43472  1.0000
  Cu  Cu4666    1.0  0.81370  0.41552  0.39862  1.0000
  Cu  Cu4667    1.0  0.81370  0.41782  0.48195  1.0000
  Cu  Cu4668    1.0  0.75773  0.41552  0.35138  1.0000
  Cu  Cu4669    1.0  0.82916  0.33448  0.43472  1.0000
  Cu  Cu4670    1.0  0.74227  0.49885  0.39862  1.0000
  Cu  Cu4671    1.0  0.74227  0.33448  0.48195  1.0000
  Cu  Cu4672    1.0  0.82916  0.49885  0.35138  1.0000
  Cu  Cu4673    1.0  0.71429  0.33333  0.33333  1.0000
  Cu  Cu4674    1.0  0.71429  0.33333  0.41667  1.0000
  Cu  Cu4675    1.0  0.78571  0.41667  0.33333  1.0000
  Cu  Cu4676    1.0  0.78571  0.41667  0.41667  1.0000
  Cu  Cu4677    1.0  0.71429  0.36112  0.37500  1.0000
  Cu  Cu4678    1.0  0.71429  0.47222  0.45833  1.0000
  Cu  Cu4679    1.0  0.78571  0.44445  0.37500  1.0000
  Cu  Cu4680    1.0  0.78571  0.38888  0.45833  1.0000
  Cu  Cu4681    1.0  0.72857  0.41437  0.53333  1.0000
  Cu  Cu4682    1.0  0.84286  0.41897  0.63333  1.0000
  Cu  Cu4683    1.0  0.84286  0.41437  0.55000  1.0000
  Cu  Cu4684    1.0  0.72857  0.41897  0.61667  1.0000
  Cu  Cu4685    1.0  0.80000  0.49770  0.53333  1.0000
  Cu  Cu4686    1.0  0.77143  0.33563  0.63333  1.0000
  Cu  Cu4687    1.0  0.77143  0.49770  0.55000  1.0000
  Cu  Cu4688    1.0  0.80000  0.33563  0.61667  1.0000
  Cu  Cu4689    1.0  0.75773  0.41782  0.60138  1.0000
  Cu  Cu4690    1.0  0.81370  0.41552  0.56528  1.0000
  Cu  Cu4691    1.0  0.81370  0.41782  0.64862  1.0000
  Cu  Cu4692    1.0  0.75773  0.41552  0.51805  1.0000
  Cu  Cu4693    1.0  0.82916  0.33448  0.60138  1.0000
  Cu  Cu4694    1.0  0.74227  0.49885  0.56528  1.0000
  Cu  Cu4695    1.0  0.74227  0.33448  0.64862  1.0000
  Cu  Cu4696    1.0  0.82916  0.49885  0.51805  1.0000
  Cu  Cu4697    1.0  0.71429  0.33333  0.50000  1.0000
  Cu  Cu4698    1.0  0.71429  0.33333  0.58333  1.0000
  Cu  Cu4699    1.0  0.78571  0.41667  0.50000  1.0000
  Cu  Cu4700    1.0  0.78571  0.41667  0.58333  1.0000
  Cu  Cu4701    1.0  0.71429  0.36112  0.54167  1.0000
  Cu  Cu4702    1.0  0.71429  0.47222  0.62500  1.0000
  Cu  Cu4703    1.0  0.78571  0.44445  0.54167  1.0000
  Cu  Cu4704    1.0  0.78571  0.38888  0.62500  1.0000
  Cu  Cu4705    1.0  0.72857  0.41437  0.70000  1.0000
  Cu  Cu4706    1.0  0.84286  0.41897  0.80000  1.0000
  Cu  Cu4707    1.0  0.84286  0.41437  0.71667  1.0000
  Cu  Cu4708    1.0  0.72857  0.41897  0.78333  1.0000
  Cu  Cu4709    1.0  0.80000  0.49770  0.70000  1.0000
  Cu  Cu4710    1.0  0.77143  0.33563  0.80000  1.0000
  Cu  Cu4711    1.0  0.77143  0.49770  0.71667  1.0000
  Cu  Cu4712    1.0  0.80000  0.33563  0.78333  1.0000
  Cu  Cu4713    1.0  0.75773  0.41782  0.76805  1.0000
  Cu  Cu4714    1.0  0.81370  0.41552  0.73195  1.0000
  Cu  Cu4715    1.0  0.81370  0.41782  0.81528  1.0000
  Cu  Cu4716    1.0  0.75773  0.41552  0.68472  1.0000
  Cu  Cu4717    1.0  0.82916  0.33448  0.76805  1.0000
  Cu  Cu4718    1.0  0.74227  0.49885  0.73195  1.0000
  Cu  Cu4719    1.0  0.74227  0.33448  0.81528  1.0000
  Cu  Cu4720    1.0  0.82916  0.49885  0.68472  1.0000
  Cu  Cu4721    1.0  0.71429  0.33333  0.66667  1.0000
  Cu  Cu4722    1.0  0.71429  0.33333  0.75000  1.0000
  Cu  Cu4723    1.0  0.78571  0.41667  0.66667  1.0000
  Cu  Cu4724    1.0  0.78571  0.41667  0.75000  1.0000
  Cu  Cu4725    1.0  0.71429  0.36112  0.70833  1.0000
  Cu  Cu4726    1.0  0.71429  0.47222  0.79167  1.0000
  Cu  Cu4727    1.0  0.78571  0.44445  0.70833  1.0000
  Cu  Cu4728    1.0  0.78571  0.38888  0.79167  1.0000
  Cu  Cu4729    1.0  0.72857  0.41437  0.86667  1.0000
  Cu  Cu4730    1.0  0.84286  0.41897  0.96667  1.0000
  Cu  Cu4731    1.0  0.84286  0.41437  0.88333  1.0000
  Cu  Cu4732    1.0  0.72857  0.41897  0.95000  1.0000
  Cu  Cu4733    1.0  0.80000  0.49770  0.86667  1.0000
  Cu  Cu4734    1.0  0.77143  0.33563  0.96667  1.0000
  Cu  Cu4735    1.0  0.77143  0.49770  0.88333  1.0000
  Cu  Cu4736    1.0  0.80000  0.33563  0.95000  1.0000
  Cu  Cu4737    1.0  0.75773  0.41782  0.93472  1.0000
  Cu  Cu4738    1.0  0.81370  0.41552  0.89862  1.0000
  Cu  Cu4739    1.0  0.81370  0.41782  0.98195  1.0000
  Cu  Cu4740    1.0  0.75773  0.41552  0.85138  1.0000
  Cu  Cu4741    1.0  0.82916  0.33448  0.93472  1.0000
  Cu  Cu4742    1.0  0.74227  0.49885  0.89862  1.0000
  Cu  Cu4743    1.0  0.74227  0.33448  0.98195  1.0000
  Cu  Cu4744    1.0  0.82916  0.49885  0.85138  1.0000
  Cu  Cu4745    1.0  0.71429  0.33333  0.83333  1.0000
  Cu  Cu4746    1.0  0.71429  0.33333  0.91667  1.0000
  Cu  Cu4747    1.0  0.78571  0.41667  0.83333  1.0000
  Cu  Cu4748    1.0  0.78571  0.41667  0.91667  1.0000
  Cu  Cu4749    1.0  0.71429  0.36112  0.87500  1.0000
  Cu  Cu4750    1.0  0.71429  0.47222  0.95833  1.0000
  Cu  Cu4751    1.0  0.78571  0.44445  0.87500  1.0000
  Cu  Cu4752    1.0  0.78571  0.38888  0.95833  1.0000
  Cu  Cu4753    1.0  0.72857  0.58103  0.03333  1.0000
  Cu  Cu4754    1.0  0.84286  0.58563  0.13333  1.0000
  Cu  Cu4755    1.0  0.84286  0.58103  0.05000  1.0000
  Cu  Cu4756    1.0  0.72857  0.58563  0.11667  1.0000
  Cu  Cu4757    1.0  0.80000  0.66437  0.03333  1.0000
  Cu  Cu4758    1.0  0.77143  0.50230  0.13333  1.0000
  Cu  Cu4759    1.0  0.77143  0.66437  0.05000  1.0000
  Cu  Cu4760    1.0  0.80000  0.50230  0.11667  1.0000
  Cu  Cu4761    1.0  0.75773  0.58448  0.10138  1.0000
  Cu  Cu4762    1.0  0.81370  0.58218  0.06528  1.0000
  Cu  Cu4763    1.0  0.81370  0.58448  0.14862  1.0000
  Cu  Cu4764    1.0  0.75773  0.58218  0.01805  1.0000
  Cu  Cu4765    1.0  0.82916  0.50115  0.10138  1.0000
  Cu  Cu4766    1.0  0.74227  0.66552  0.06528  1.0000
  Cu  Cu4767    1.0  0.74227  0.50115  0.14862  1.0000
  Cu  Cu4768    1.0  0.82916  0.66552  0.01805  1.0000
  Cu  Cu4769    1.0  0.71429  0.50000  0.00000  1.0000
  Cu  Cu4770    1.0  0.71429  0.50000  0.08333  1.0000
  Cu  Cu4771    1.0  0.78571  0.58333  0.00000  1.0000
  Cu  Cu4772    1.0  0.78571  0.58333  0.08333  1.0000
  Cu  Cu4773    1.0  0.71429  0.52778  0.04167  1.0000
  Cu  Cu4774    1.0  0.71429  0.63888  0.12500  1.0000
  Cu  Cu4775    1.0  0.78571  0.61112  0.04167  1.0000
  Cu  Cu4776    1.0  0.78571  0.55555  0.12500  1.0000
  Cu  Cu4777    1.0  0.72857  0.58103  0.20000  1.0000
  Cu  Cu4778    1.0  0.84286  0.58563  0.30000  1.0000
  Cu  Cu4779    1.0  0.84286  0.58103  0.21667  1.0000
  Cu  Cu4780    1.0  0.72857  0.58563  0.28333  1.0000
  Cu  Cu4781    1.0  0.80000  0.66437  0.20000  1.0000
  Cu  Cu4782    1.0  0.77143  0.50230  0.30000  1.0000
  Cu  Cu4783    1.0  0.77143  0.66437  0.21667  1.0000
  Cu  Cu4784    1.0  0.80000  0.50230  0.28333  1.0000
  Cu  Cu4785    1.0  0.75773  0.58448  0.26805  1.0000
  Cu  Cu4786    1.0  0.81370  0.58218  0.23195  1.0000
  Cu  Cu4787    1.0  0.81370  0.58448  0.31528  1.0000
  Cu  Cu4788    1.0  0.75773  0.58218  0.18472  1.0000
  Cu  Cu4789    1.0  0.82916  0.50115  0.26805  1.0000
  Cu  Cu4790    1.0  0.74227  0.66552  0.23195  1.0000
  Cu  Cu4791    1.0  0.74227  0.50115  0.31528  1.0000
  Cu  Cu4792    1.0  0.82916  0.66552  0.18472  1.0000
  Cu  Cu4793    1.0  0.71429  0.50000  0.16667  1.0000
  Cu  Cu4794    1.0  0.71429  0.50000  0.25000  1.0000
  Cu  Cu4795    1.0  0.78571  0.58333  0.16667  1.0000
  Cu  Cu4796    1.0  0.78571  0.58333  0.25000  1.0000
  Cu  Cu4797    1.0  0.71429  0.52778  0.20833  1.0000
  Cu  Cu4798    1.0  0.71429  0.63888  0.29167  1.0000
  Cu  Cu4799    1.0  0.78571  0.61112  0.20833  1.0000
  Cu  Cu4800    1.0  0.78571  0.55555  0.29167  1.0000
  Cu  Cu4801    1.0  0.72857  0.58103  0.36667  1.0000
  Cu  Cu4802    1.0  0.84286  0.58563  0.46667  1.0000
  Cu  Cu4803    1.0  0.84286  0.58103  0.38333  1.0000
  Cu  Cu4804    1.0  0.72857  0.58563  0.45000  1.0000
  Cu  Cu4805    1.0  0.80000  0.66437  0.36667  1.0000
  Cu  Cu4806    1.0  0.77143  0.50230  0.46667  1.0000
  Cu  Cu4807    1.0  0.77143  0.66437  0.38333  1.0000
  Cu  Cu4808    1.0  0.80000  0.50230  0.45000  1.0000
  Cu  Cu4809    1.0  0.75773  0.58448  0.43472  1.0000
  Cu  Cu4810    1.0  0.81370  0.58218  0.39862  1.0000
  Cu  Cu4811    1.0  0.81370  0.58448  0.48195  1.0000
  Cu  Cu4812    1.0  0.75773  0.58218  0.35138  1.0000
  Cu  Cu4813    1.0  0.82916  0.50115  0.43472  1.0000
  Cu  Cu4814    1.0  0.74227  0.66552  0.39862  1.0000
  Cu  Cu4815    1.0  0.74227  0.50115  0.48195  1.0000
  Cu  Cu4816    1.0  0.82916  0.66552  0.35138  1.0000
  Cu  Cu4817    1.0  0.71429  0.50000  0.33333  1.0000
  Cu  Cu4818    1.0  0.71429  0.50000  0.41667  1.0000
  Cu  Cu4819    1.0  0.78571  0.58333  0.33333  1.0000
  Cu  Cu4820    1.0  0.78571  0.58333  0.41667  1.0000
  Cu  Cu4821    1.0  0.71429  0.52778  0.37500  1.0000
  Cu  Cu4822    1.0  0.71429  0.63888  0.45833  1.0000
  Cu  Cu4823    1.0  0.78571  0.61112  0.37500  1.0000
  Cu  Cu4824    1.0  0.78571  0.55555  0.45833  1.0000
  Cu  Cu4825    1.0  0.72857  0.58103  0.53333  1.0000
  Cu  Cu4826    1.0  0.84286  0.58563  0.63333  1.0000
  Cu  Cu4827    1.0  0.84286  0.58103  0.55000  1.0000
  Cu  Cu4828    1.0  0.72857  0.58563  0.61667  1.0000
  Cu  Cu4829    1.0  0.80000  0.66437  0.53333  1.0000
  Cu  Cu4830    1.0  0.77143  0.50230  0.63333  1.0000
  Cu  Cu4831    1.0  0.77143  0.66437  0.55000  1.0000
  Cu  Cu4832    1.0  0.80000  0.50230  0.61667  1.0000
  Cu  Cu4833    1.0  0.75773  0.58448  0.60138  1.0000
  Cu  Cu4834    1.0  0.81370  0.58218  0.56528  1.0000
  Cu  Cu4835    1.0  0.81370  0.58448  0.64862  1.0000
  Cu  Cu4836    1.0  0.75773  0.58218  0.51805  1.0000
  Cu  Cu4837    1.0  0.82916  0.50115  0.60138  1.0000
  Cu  Cu4838    1.0  0.74227  0.66552  0.56528  1.0000
  Cu  Cu4839    1.0  0.74227  0.50115  0.64862  1.0000
  Cu  Cu4840    1.0  0.82916  0.66552  0.51805  1.0000
  Cu  Cu4841    1.0  0.71429  0.50000  0.50000  1.0000
  Cu  Cu4842    1.0  0.71429  0.50000  0.58333  1.0000
  Cu  Cu4843    1.0  0.78571  0.58333  0.50000  1.0000
  Cu  Cu4844    1.0  0.78571  0.58333  0.58333  1.0000
  Cu  Cu4845    1.0  0.71429  0.52778  0.54167  1.0000
  Cu  Cu4846    1.0  0.71429  0.63888  0.62500  1.0000
  Cu  Cu4847    1.0  0.78571  0.61112  0.54167  1.0000
  Cu  Cu4848    1.0  0.78571  0.55555  0.62500  1.0000
  Cu  Cu4849    1.0  0.72857  0.58103  0.70000  1.0000
  Cu  Cu4850    1.0  0.84286  0.58563  0.80000  1.0000
  Cu  Cu4851    1.0  0.84286  0.58103  0.71667  1.0000
  Cu  Cu4852    1.0  0.72857  0.58563  0.78333  1.0000
  Cu  Cu4853    1.0  0.80000  0.66437  0.70000  1.0000
  Cu  Cu4854    1.0  0.77143  0.50230  0.80000  1.0000
  Cu  Cu4855    1.0  0.77143  0.66437  0.71667  1.0000
  Cu  Cu4856    1.0  0.80000  0.50230  0.78333  1.0000
  Cu  Cu4857    1.0  0.75773  0.58448  0.76805  1.0000
  Cu  Cu4858    1.0  0.81370  0.58218  0.73195  1.0000
  Cu  Cu4859    1.0  0.81370  0.58448  0.81528  1.0000
  Cu  Cu4860    1.0  0.75773  0.58218  0.68472  1.0000
  Cu  Cu4861    1.0  0.82916  0.50115  0.76805  1.0000
  Cu  Cu4862    1.0  0.74227  0.66552  0.73195  1.0000
  Cu  Cu4863    1.0  0.74227  0.50115  0.81528  1.0000
  Cu  Cu4864    1.0  0.82916  0.66552  0.68472  1.0000
  Cu  Cu4865    1.0  0.71429  0.50000  0.66667  1.0000
  Cu  Cu4866    1.0  0.71429  0.50000  0.75000  1.0000
  Cu  Cu4867    1.0  0.78571  0.58333  0.66667  1.0000
  Cu  Cu4868    1.0  0.78571  0.58333  0.75000  1.0000
  Cu  Cu4869    1.0  0.71429  0.52778  0.70833  1.0000
  Cu  Cu4870    1.0  0.71429  0.63888  0.79167  1.0000
  Cu  Cu4871    1.0  0.78571  0.61112  0.70833  1.0000
  Cu  Cu4872    1.0  0.78571  0.55555  0.79167  1.0000
  Cu  Cu4873    1.0  0.72857  0.58103  0.86667  1.0000
  Cu  Cu4874    1.0  0.84286  0.58563  0.96667  1.0000
  Cu  Cu4875    1.0  0.84286  0.58103  0.88333  1.0000
  Cu  Cu4876    1.0  0.72857  0.58563  0.95000  1.0000
  Cu  Cu4877    1.0  0.80000  0.66437  0.86667  1.0000
  Cu  Cu4878    1.0  0.77143  0.50230  0.96667  1.0000
  Cu  Cu4879    1.0  0.77143  0.66437  0.88333  1.0000
  Cu  Cu4880    1.0  0.80000  0.50230  0.95000  1.0000
  Cu  Cu4881    1.0  0.75773  0.58448  0.93472  1.0000
  Cu  Cu4882    1.0  0.81370  0.58218  0.89862  1.0000
  Cu  Cu4883    1.0  0.81370  0.58448  0.98195  1.0000
  Cu  Cu4884    1.0  0.75773  0.58218  0.85138  1.0000
  Cu  Cu4885    1.0  0.82916  0.50115  0.93472  1.0000
  Cu  Cu4886    1.0  0.74227  0.66552  0.89862  1.0000
  Cu  Cu4887    1.0  0.74227  0.50115  0.98195  1.0000
  Cu  Cu4888    1.0  0.82916  0.66552  0.85138  1.0000
  Cu  Cu4889    1.0  0.71429  0.50000  0.83333  1.0000
  Cu  Cu4890    1.0  0.71429  0.50000  0.91667  1.0000
  Cu  Cu4891    1.0  0.78571  0.58333  0.83333  1.0000
  Cu  Cu4892    1.0  0.78571  0.58333  0.91667  1.0000
  Cu  Cu4893    1.0  0.71429  0.52778  0.87500  1.0000
  Cu  Cu4894    1.0  0.71429  0.63888  0.95833  1.0000
  Cu  Cu4895    1.0  0.78571  0.61112  0.87500  1.0000
  Cu  Cu4896    1.0  0.78571  0.55555  0.95833  1.0000
  Cu  Cu4897    1.0  0.72857  0.74770  0.03333  1.0000
  Cu  Cu4898    1.0  0.84286  0.75230  0.13333  1.0000
  Cu  Cu4899    1.0  0.84286  0.74770  0.05000  1.0000
  Cu  Cu4900    1.0  0.72857  0.75230  0.11667  1.0000
  Cu  Cu4901    1.0  0.80000  0.83103  0.03333  1.0000
  Cu  Cu4902    1.0  0.77143  0.66897  0.13333  1.0000
  Cu  Cu4903    1.0  0.77143  0.83103  0.05000  1.0000
  Cu  Cu4904    1.0  0.80000  0.66897  0.11667  1.0000
  Cu  Cu4905    1.0  0.75773  0.75115  0.10138  1.0000
  Cu  Cu4906    1.0  0.81370  0.74885  0.06528  1.0000
  Cu  Cu4907    1.0  0.81370  0.75115  0.14862  1.0000
  Cu  Cu4908    1.0  0.75773  0.74885  0.01805  1.0000
  Cu  Cu4909    1.0  0.82916  0.66782  0.10138  1.0000
  Cu  Cu4910    1.0  0.74227  0.83218  0.06528  1.0000
  Cu  Cu4911    1.0  0.74227  0.66782  0.14862  1.0000
  Cu  Cu4912    1.0  0.82916  0.83218  0.01805  1.0000
  Cu  Cu4913    1.0  0.71429  0.66667  0.00000  1.0000
  Cu  Cu4914    1.0  0.71429  0.66667  0.08333  1.0000
  Cu  Cu4915    1.0  0.78571  0.75000  0.00000  1.0000
  Cu  Cu4916    1.0  0.78571  0.75000  0.08333  1.0000
  Cu  Cu4917    1.0  0.71429  0.69445  0.04167  1.0000
  Cu  Cu4918    1.0  0.71429  0.80555  0.12500  1.0000
  Cu  Cu4919    1.0  0.78571  0.77778  0.04167  1.0000
  Cu  Cu4920    1.0  0.78571  0.72222  0.12500  1.0000
  Cu  Cu4921    1.0  0.72857  0.74770  0.20000  1.0000
  Cu  Cu4922    1.0  0.84286  0.75230  0.30000  1.0000
  Cu  Cu4923    1.0  0.84286  0.74770  0.21667  1.0000
  Cu  Cu4924    1.0  0.72857  0.75230  0.28333  1.0000
  Cu  Cu4925    1.0  0.80000  0.83103  0.20000  1.0000
  Cu  Cu4926    1.0  0.77143  0.66897  0.30000  1.0000
  Cu  Cu4927    1.0  0.77143  0.83103  0.21667  1.0000
  Cu  Cu4928    1.0  0.80000  0.66897  0.28333  1.0000
  Cu  Cu4929    1.0  0.75773  0.75115  0.26805  1.0000
  Cu  Cu4930    1.0  0.81370  0.74885  0.23195  1.0000
  Cu  Cu4931    1.0  0.81370  0.75115  0.31528  1.0000
  Cu  Cu4932    1.0  0.75773  0.74885  0.18472  1.0000
  Cu  Cu4933    1.0  0.82916  0.66782  0.26805  1.0000
  Cu  Cu4934    1.0  0.74227  0.83218  0.23195  1.0000
  Cu  Cu4935    1.0  0.74227  0.66782  0.31528  1.0000
  Cu  Cu4936    1.0  0.82916  0.83218  0.18472  1.0000
  Cu  Cu4937    1.0  0.71429  0.66667  0.16667  1.0000
  Cu  Cu4938    1.0  0.71429  0.66667  0.25000  1.0000
  Cu  Cu4939    1.0  0.78571  0.75000  0.16667  1.0000
  Cu  Cu4940    1.0  0.78571  0.75000  0.25000  1.0000
  Cu  Cu4941    1.0  0.71429  0.69445  0.20833  1.0000
  Cu  Cu4942    1.0  0.71429  0.80555  0.29167  1.0000
  Cu  Cu4943    1.0  0.78571  0.77778  0.20833  1.0000
  Cu  Cu4944    1.0  0.78571  0.72222  0.29167  1.0000
  Cu  Cu4945    1.0  0.72857  0.74770  0.36667  1.0000
  Cu  Cu4946    1.0  0.84286  0.75230  0.46667  1.0000
  Cu  Cu4947    1.0  0.84286  0.74770  0.38333  1.0000
  Cu  Cu4948    1.0  0.72857  0.75230  0.45000  1.0000
  Cu  Cu4949    1.0  0.80000  0.83103  0.36667  1.0000
  Cu  Cu4950    1.0  0.77143  0.66897  0.46667  1.0000
  Cu  Cu4951    1.0  0.77143  0.83103  0.38333  1.0000
  Cu  Cu4952    1.0  0.80000  0.66897  0.45000  1.0000
  Cu  Cu4953    1.0  0.75773  0.75115  0.43472  1.0000
  Cu  Cu4954    1.0  0.81370  0.74885  0.39862  1.0000
  Cu  Cu4955    1.0  0.81370  0.75115  0.48195  1.0000
  Cu  Cu4956    1.0  0.75773  0.74885  0.35138  1.0000
  Cu  Cu4957    1.0  0.82916  0.66782  0.43472  1.0000
  Cu  Cu4958    1.0  0.74227  0.83218  0.39862  1.0000
  Cu  Cu4959    1.0  0.74227  0.66782  0.48195  1.0000
  Cu  Cu4960    1.0  0.82916  0.83218  0.35138  1.0000
  Cu  Cu4961    1.0  0.71429  0.66667  0.33333  1.0000
  Cu  Cu4962    1.0  0.71429  0.66667  0.41667  1.0000
  Cu  Cu4963    1.0  0.78571  0.75000  0.33333  1.0000
  Cu  Cu4964    1.0  0.78571  0.75000  0.41667  1.0000
  Cu  Cu4965    1.0  0.71429  0.69445  0.37500  1.0000
  Cu  Cu4966    1.0  0.71429  0.80555  0.45833  1.0000
  Cu  Cu4967    1.0  0.78571  0.77778  0.37500  1.0000
  Cu  Cu4968    1.0  0.78571  0.72222  0.45833  1.0000
  Cu  Cu4969    1.0  0.72857  0.74770  0.53333  1.0000
  Cu  Cu4970    1.0  0.84286  0.75230  0.63333  1.0000
  Cu  Cu4971    1.0  0.84286  0.74770  0.55000  1.0000
  Cu  Cu4972    1.0  0.72857  0.75230  0.61667  1.0000
  Cu  Cu4973    1.0  0.80000  0.83103  0.53333  1.0000
  Cu  Cu4974    1.0  0.77143  0.66897  0.63333  1.0000
  Cu  Cu4975    1.0  0.77143  0.83103  0.55000  1.0000
  Cu  Cu4976    1.0  0.80000  0.66897  0.61667  1.0000
  Cu  Cu4977    1.0  0.75773  0.75115  0.60138  1.0000
  Cu  Cu4978    1.0  0.81370  0.74885  0.56528  1.0000
  Cu  Cu4979    1.0  0.81370  0.75115  0.64862  1.0000
  Cu  Cu4980    1.0  0.75773  0.74885  0.51805  1.0000
  Cu  Cu4981    1.0  0.82916  0.66782  0.60138  1.0000
  Cu  Cu4982    1.0  0.74227  0.83218  0.56528  1.0000
  Cu  Cu4983    1.0  0.74227  0.66782  0.64862  1.0000
  Cu  Cu4984    1.0  0.82916  0.83218  0.51805  1.0000
  Cu  Cu4985    1.0  0.71429  0.66667  0.50000  1.0000
  Cu  Cu4986    1.0  0.71429  0.66667  0.58333  1.0000
  Cu  Cu4987    1.0  0.78571  0.75000  0.50000  1.0000
  Cu  Cu4988    1.0  0.78571  0.75000  0.58333  1.0000
  Cu  Cu4989    1.0  0.71429  0.69445  0.54167  1.0000
  Cu  Cu4990    1.0  0.71429  0.80555  0.62500  1.0000
  Cu  Cu4991    1.0  0.78571  0.77778  0.54167  1.0000
  Cu  Cu4992    1.0  0.78571  0.72222  0.62500  1.0000
  Cu  Cu4993    1.0  0.72857  0.74770  0.70000  1.0000
  Cu  Cu4994    1.0  0.84286  0.75230  0.80000  1.0000
  Cu  Cu4995    1.0  0.84286  0.74770  0.71667  1.0000
  Cu  Cu4996    1.0  0.72857  0.75230  0.78333  1.0000
  Cu  Cu4997    1.0  0.80000  0.83103  0.70000  1.0000
  Cu  Cu4998    1.0  0.77143  0.66897  0.80000  1.0000
  Cu  Cu4999    1.0  0.77143  0.83103  0.71667  1.0000
  Cu  Cu5000    1.0  0.80000  0.66897  0.78333  1.0000
  Cu  Cu5001    1.0  0.75773  0.75115  0.76805  1.0000
  Cu  Cu5002    1.0  0.81370  0.74885  0.73195  1.0000
  Cu  Cu5003    1.0  0.81370  0.75115  0.81528  1.0000
  Cu  Cu5004    1.0  0.75773  0.74885  0.68472  1.0000
  Cu  Cu5005    1.0  0.82916  0.66782  0.76805  1.0000
  Cu  Cu5006    1.0  0.74227  0.83218  0.73195  1.0000
  Cu  Cu5007    1.0  0.74227  0.66782  0.81528  1.0000
  Cu  Cu5008    1.0  0.82916  0.83218  0.68472  1.0000
  Cu  Cu5009    1.0  0.71429  0.66667  0.66667  1.0000
  Cu  Cu5010    1.0  0.71429  0.66667  0.75000  1.0000
  Cu  Cu5011    1.0  0.78571  0.75000  0.66667  1.0000
  Cu  Cu5012    1.0  0.78571  0.75000  0.75000  1.0000
  Cu  Cu5013    1.0  0.71429  0.69445  0.70833  1.0000
  Cu  Cu5014    1.0  0.71429  0.80555  0.79167  1.0000
  Cu  Cu5015    1.0  0.78571  0.77778  0.70833  1.0000
  Cu  Cu5016    1.0  0.78571  0.72222  0.79167  1.0000
  Cu  Cu5017    1.0  0.72857  0.74770  0.86667  1.0000
  Cu  Cu5018    1.0  0.84286  0.75230  0.96667  1.0000
  Cu  Cu5019    1.0  0.84286  0.74770  0.88333  1.0000
  Cu  Cu5020    1.0  0.72857  0.75230  0.95000  1.0000
  Cu  Cu5021    1.0  0.80000  0.83103  0.86667  1.0000
  Cu  Cu5022    1.0  0.77143  0.66897  0.96667  1.0000
  Cu  Cu5023    1.0  0.77143  0.83103  0.88333  1.0000
  Cu  Cu5024    1.0  0.80000  0.66897  0.95000  1.0000
  Cu  Cu5025    1.0  0.75773  0.75115  0.93472  1.0000
  Cu  Cu5026    1.0  0.81370  0.74885  0.89862  1.0000
  Cu  Cu5027    1.0  0.81370  0.75115  0.98195  1.0000
  Cu  Cu5028    1.0  0.75773  0.74885  0.85138  1.0000
  Cu  Cu5029    1.0  0.82916  0.66782  0.93472  1.0000
  Cu  Cu5030    1.0  0.74227  0.83218  0.89862  1.0000
  Cu  Cu5031    1.0  0.74227  0.66782  0.98195  1.0000
  Cu  Cu5032    1.0  0.82916  0.83218  0.85138  1.0000
  Cu  Cu5033    1.0  0.71429  0.66667  0.83333  1.0000
  Cu  Cu5034    1.0  0.71429  0.66667  0.91667  1.0000
  Cu  Cu5035    1.0  0.78571  0.75000  0.83333  1.0000
  Cu  Cu5036    1.0  0.78571  0.75000  0.91667  1.0000
  Cu  Cu5037    1.0  0.71429  0.69445  0.87500  1.0000
  Cu  Cu5038    1.0  0.71429  0.80555  0.95833  1.0000
  Cu  Cu5039    1.0  0.78571  0.77778  0.87500  1.0000
  Cu  Cu5040    1.0  0.78571  0.72222  0.95833  1.0000
  Cu  Cu5041    1.0  0.72857  0.91437  0.03333  1.0000
  Cu  Cu5042    1.0  0.84286  0.91897  0.13333  1.0000
  Cu  Cu5043    1.0  0.84286  0.91437  0.05000  1.0000
  Cu  Cu5044    1.0  0.72857  0.91897  0.11667  1.0000
  Cu  Cu5045    1.0  0.80000  0.99770  0.03333  1.0000
  Cu  Cu5046    1.0  0.77143  0.83563  0.13333  1.0000
  Cu  Cu5047    1.0  0.77143  0.99770  0.05000  1.0000
  Cu  Cu5048    1.0  0.80000  0.83563  0.11667  1.0000
  Cu  Cu5049    1.0  0.75773  0.91782  0.10138  1.0000
  Cu  Cu5050    1.0  0.81370  0.91552  0.06528  1.0000
  Cu  Cu5051    1.0  0.81370  0.91782  0.14862  1.0000
  Cu  Cu5052    1.0  0.75773  0.91552  0.01805  1.0000
  Cu  Cu5053    1.0  0.82916  0.83448  0.10138  1.0000
  Cu  Cu5054    1.0  0.74227  0.99885  0.06528  1.0000
  Cu  Cu5055    1.0  0.74227  0.83448  0.14862  1.0000
  Cu  Cu5056    1.0  0.82916  0.99885  0.01805  1.0000
  Cu  Cu5057    1.0  0.71429  0.83333  0.00000  1.0000
  Cu  Cu5058    1.0  0.71429  0.83333  0.08333  1.0000
  Cu  Cu5059    1.0  0.78571  0.91667  0.00000  1.0000
  Cu  Cu5060    1.0  0.78571  0.91667  0.08333  1.0000
  Cu  Cu5061    1.0  0.71429  0.86112  0.04167  1.0000
  Cu  Cu5062    1.0  0.71429  0.97222  0.12500  1.0000
  Cu  Cu5063    1.0  0.78571  0.94445  0.04167  1.0000
  Cu  Cu5064    1.0  0.78571  0.88888  0.12500  1.0000
  Cu  Cu5065    1.0  0.72857  0.91437  0.20000  1.0000
  Cu  Cu5066    1.0  0.84286  0.91897  0.30000  1.0000
  Cu  Cu5067    1.0  0.84286  0.91437  0.21667  1.0000
  Cu  Cu5068    1.0  0.72857  0.91897  0.28333  1.0000
  Cu  Cu5069    1.0  0.80000  0.99770  0.20000  1.0000
  Cu  Cu5070    1.0  0.77143  0.83563  0.30000  1.0000
  Cu  Cu5071    1.0  0.77143  0.99770  0.21667  1.0000
  Cu  Cu5072    1.0  0.80000  0.83563  0.28333  1.0000
  Cu  Cu5073    1.0  0.75773  0.91782  0.26805  1.0000
  Cu  Cu5074    1.0  0.81370  0.91552  0.23195  1.0000
  Cu  Cu5075    1.0  0.81370  0.91782  0.31528  1.0000
  Cu  Cu5076    1.0  0.75773  0.91552  0.18472  1.0000
  Cu  Cu5077    1.0  0.82916  0.83448  0.26805  1.0000
  Cu  Cu5078    1.0  0.74227  0.99885  0.23195  1.0000
  Cu  Cu5079    1.0  0.74227  0.83448  0.31528  1.0000
  Cu  Cu5080    1.0  0.82916  0.99885  0.18472  1.0000
  Cu  Cu5081    1.0  0.71429  0.83333  0.16667  1.0000
  Cu  Cu5082    1.0  0.71429  0.83333  0.25000  1.0000
  Cu  Cu5083    1.0  0.78571  0.91667  0.16667  1.0000
  Cu  Cu5084    1.0  0.78571  0.91667  0.25000  1.0000
  Cu  Cu5085    1.0  0.71429  0.86112  0.20833  1.0000
  Cu  Cu5086    1.0  0.71429  0.97222  0.29167  1.0000
  Cu  Cu5087    1.0  0.78571  0.94445  0.20833  1.0000
  Cu  Cu5088    1.0  0.78571  0.88888  0.29167  1.0000
  Cu  Cu5089    1.0  0.72857  0.91437  0.36667  1.0000
  Cu  Cu5090    1.0  0.84286  0.91897  0.46667  1.0000
  Cu  Cu5091    1.0  0.84286  0.91437  0.38333  1.0000
  Cu  Cu5092    1.0  0.72857  0.91897  0.45000  1.0000
  Cu  Cu5093    1.0  0.80000  0.99770  0.36667  1.0000
  Cu  Cu5094    1.0  0.77143  0.83563  0.46667  1.0000
  Cu  Cu5095    1.0  0.77143  0.99770  0.38333  1.0000
  Cu  Cu5096    1.0  0.80000  0.83563  0.45000  1.0000
  Cu  Cu5097    1.0  0.75773  0.91782  0.43472  1.0000
  Cu  Cu5098    1.0  0.81370  0.91552  0.39862  1.0000
  Cu  Cu5099    1.0  0.81370  0.91782  0.48195  1.0000
  Cu  Cu5100    1.0  0.75773  0.91552  0.35138  1.0000
  Cu  Cu5101    1.0  0.82916  0.83448  0.43472  1.0000
  Cu  Cu5102    1.0  0.74227  0.99885  0.39862  1.0000
  Cu  Cu5103    1.0  0.74227  0.83448  0.48195  1.0000
  Cu  Cu5104    1.0  0.82916  0.99885  0.35138  1.0000
  Cu  Cu5105    1.0  0.71429  0.83333  0.33333  1.0000
  Cu  Cu5106    1.0  0.71429  0.83333  0.41667  1.0000
  Cu  Cu5107    1.0  0.78571  0.91667  0.33333  1.0000
  Cu  Cu5108    1.0  0.78571  0.91667  0.41667  1.0000
  Cu  Cu5109    1.0  0.71429  0.86112  0.37500  1.0000
  Cu  Cu5110    1.0  0.71429  0.97222  0.45833  1.0000
  Cu  Cu5111    1.0  0.78571  0.94445  0.37500  1.0000
  Cu  Cu5112    1.0  0.78571  0.88888  0.45833  1.0000
  Cu  Cu5113    1.0  0.72857  0.91437  0.53333  1.0000
  Cu  Cu5114    1.0  0.84286  0.91897  0.63333  1.0000
  Cu  Cu5115    1.0  0.84286  0.91437  0.55000  1.0000
  Cu  Cu5116    1.0  0.72857  0.91897  0.61667  1.0000
  Cu  Cu5117    1.0  0.80000  0.99770  0.53333  1.0000
  Cu  Cu5118    1.0  0.77143  0.83563  0.63333  1.0000
  Cu  Cu5119    1.0  0.77143  0.99770  0.55000  1.0000
  Cu  Cu5120    1.0  0.80000  0.83563  0.61667  1.0000
  Cu  Cu5121    1.0  0.75773  0.91782  0.60138  1.0000
  Cu  Cu5122    1.0  0.81370  0.91552  0.56528  1.0000
  Cu  Cu5123    1.0  0.81370  0.91782  0.64862  1.0000
  Cu  Cu5124    1.0  0.75773  0.91552  0.51805  1.0000
  Cu  Cu5125    1.0  0.82916  0.83448  0.60138  1.0000
  Cu  Cu5126    1.0  0.74227  0.99885  0.56528  1.0000
  Cu  Cu5127    1.0  0.74227  0.83448  0.64862  1.0000
  Cu  Cu5128    1.0  0.82916  0.99885  0.51805  1.0000
  Cu  Cu5129    1.0  0.71429  0.83333  0.50000  1.0000
  Cu  Cu5130    1.0  0.71429  0.83333  0.58333  1.0000
  Cu  Cu5131    1.0  0.78571  0.91667  0.50000  1.0000
  Cu  Cu5132    1.0  0.78571  0.91667  0.58333  1.0000
  Cu  Cu5133    1.0  0.71429  0.86112  0.54167  1.0000
  Cu  Cu5134    1.0  0.71429  0.97222  0.62500  1.0000
  Cu  Cu5135    1.0  0.78571  0.94445  0.54167  1.0000
  Cu  Cu5136    1.0  0.78571  0.88888  0.62500  1.0000
  Cu  Cu5137    1.0  0.72857  0.91437  0.70000  1.0000
  Cu  Cu5138    1.0  0.84286  0.91897  0.80000  1.0000
  Cu  Cu5139    1.0  0.84286  0.91437  0.71667  1.0000
  Cu  Cu5140    1.0  0.72857  0.91897  0.78333  1.0000
  Cu  Cu5141    1.0  0.80000  0.99770  0.70000  1.0000
  Cu  Cu5142    1.0  0.77143  0.83563  0.80000  1.0000
  Cu  Cu5143    1.0  0.77143  0.99770  0.71667  1.0000
  Cu  Cu5144    1.0  0.80000  0.83563  0.78333  1.0000
  Cu  Cu5145    1.0  0.75773  0.91782  0.76805  1.0000
  Cu  Cu5146    1.0  0.81370  0.91552  0.73195  1.0000
  Cu  Cu5147    1.0  0.81370  0.91782  0.81528  1.0000
  Cu  Cu5148    1.0  0.75773  0.91552  0.68472  1.0000
  Cu  Cu5149    1.0  0.82916  0.83448  0.76805  1.0000
  Cu  Cu5150    1.0  0.74227  0.99885  0.73195  1.0000
  Cu  Cu5151    1.0  0.74227  0.83448  0.81528  1.0000
  Cu  Cu5152    1.0  0.82916  0.99885  0.68472  1.0000
  Cu  Cu5153    1.0  0.71429  0.83333  0.66667  1.0000
  Cu  Cu5154    1.0  0.71429  0.83333  0.75000  1.0000
  Cu  Cu5155    1.0  0.78571  0.91667  0.66667  1.0000
  Cu  Cu5156    1.0  0.78571  0.91667  0.75000  1.0000
  Cu  Cu5157    1.0  0.71429  0.86112  0.70833  1.0000
  Cu  Cu5158    1.0  0.71429  0.97222  0.79167  1.0000
  Cu  Cu5159    1.0  0.78571  0.94445  0.70833  1.0000
  Cu  Cu5160    1.0  0.78571  0.88888  0.79167  1.0000
  Cu  Cu5161    1.0  0.72857  0.91437  0.86667  1.0000
  Cu  Cu5162    1.0  0.84286  0.91897  0.96667  1.0000
  Cu  Cu5163    1.0  0.84286  0.91437  0.88333  1.0000
  Cu  Cu5164    1.0  0.72857  0.91897  0.95000  1.0000
  Cu  Cu5165    1.0  0.80000  0.99770  0.86667  1.0000
  Cu  Cu5166    1.0  0.77143  0.83563  0.96667  1.0000
  Cu  Cu5167    1.0  0.77143  0.99770  0.88333  1.0000
  Cu  Cu5168    1.0  0.80000  0.83563  0.95000  1.0000
  Cu  Cu5169    1.0  0.75773  0.91782  0.93472  1.0000
  Cu  Cu5170    1.0  0.81370  0.91552  0.89862  1.0000
  Cu  Cu5171    1.0  0.81370  0.91782  0.98195  1.0000
  Cu  Cu5172    1.0  0.75773  0.91552  0.85138  1.0000
  Cu  Cu5173    1.0  0.82916  0.83448  0.93472  1.0000
  Cu  Cu5174    1.0  0.74227  0.99885  0.89862  1.0000
  Cu  Cu5175    1.0  0.74227  0.83448  0.98195  1.0000
  Cu  Cu5176    1.0  0.82916  0.99885  0.85138  1.0000
  Cu  Cu5177    1.0  0.71429  0.83333  0.83333  1.0000
  Cu  Cu5178    1.0  0.71429  0.83333  0.91667  1.0000
  Cu  Cu5179    1.0  0.78571  0.91667  0.83333  1.0000
  Cu  Cu5180    1.0  0.78571  0.91667  0.91667  1.0000
  Cu  Cu5181    1.0  0.71429  0.86112  0.87500  1.0000
  Cu  Cu5182    1.0  0.71429  0.97222  0.95833  1.0000
  Cu  Cu5183    1.0  0.78571  0.94445  0.87500  1.0000
  Cu  Cu5184    1.0  0.78571  0.88888  0.95833  1.0000
  Cu  Cu5185    1.0  0.87143  0.08103  0.03333  1.0000
  Cu  Cu5186    1.0  0.98571  0.08563  0.13333  1.0000
  Cu  Cu5187    1.0  0.98571  0.08103  0.05000  1.0000
  Cu  Cu5188    1.0  0.87143  0.08563  0.11667  1.0000
  Cu  Cu5189    1.0  0.94286  0.16437  0.03333  1.0000
  Cu  Cu5190    1.0  0.91429  0.00230  0.13333  1.0000
  Cu  Cu5191    1.0  0.91429  0.16437  0.05000  1.0000
  Cu  Cu5192    1.0  0.94286  0.00230  0.11667  1.0000
  Cu  Cu5193    1.0  0.90059  0.08448  0.10138  1.0000
  Cu  Cu5194    1.0  0.95656  0.08218  0.06528  1.0000
  Cu  Cu5195    1.0  0.95656  0.08448  0.14862  1.0000
  Cu  Cu5196    1.0  0.90059  0.08218  0.01805  1.0000
  Cu  Cu5197    1.0  0.97201  0.00115  0.10138  1.0000
  Cu  Cu5198    1.0  0.88513  0.16552  0.06528  1.0000
  Cu  Cu5199    1.0  0.88513  0.00115  0.14862  1.0000
  Cu  Cu5200    1.0  0.97201  0.16552  0.01805  1.0000
  Cu  Cu5201    1.0  0.85714  0.00000  0.00000  1.0000
  Cu  Cu5202    1.0  0.85714  0.00000  0.08333  1.0000
  Cu  Cu5203    1.0  0.92857  0.08333  0.00000  1.0000
  Cu  Cu5204    1.0  0.92857  0.08333  0.08333  1.0000
  Cu  Cu5205    1.0  0.85714  0.02778  0.04167  1.0000
  Cu  Cu5206    1.0  0.85714  0.13888  0.12500  1.0000
  Cu  Cu5207    1.0  0.92857  0.11112  0.04167  1.0000
  Cu  Cu5208    1.0  0.92857  0.05555  0.12500  1.0000
  Cu  Cu5209    1.0  0.87143  0.08103  0.20000  1.0000
  Cu  Cu5210    1.0  0.98571  0.08563  0.30000  1.0000
  Cu  Cu5211    1.0  0.98571  0.08103  0.21667  1.0000
  Cu  Cu5212    1.0  0.87143  0.08563  0.28333  1.0000
  Cu  Cu5213    1.0  0.94286  0.16437  0.20000  1.0000
  Cu  Cu5214    1.0  0.91429  0.00230  0.30000  1.0000
  Cu  Cu5215    1.0  0.91429  0.16437  0.21667  1.0000
  Cu  Cu5216    1.0  0.94286  0.00230  0.28333  1.0000
  Cu  Cu5217    1.0  0.90059  0.08448  0.26805  1.0000
  Cu  Cu5218    1.0  0.95656  0.08218  0.23195  1.0000
  Cu  Cu5219    1.0  0.95656  0.08448  0.31528  1.0000
  Cu  Cu5220    1.0  0.90059  0.08218  0.18472  1.0000
  Cu  Cu5221    1.0  0.97201  0.00115  0.26805  1.0000
  Cu  Cu5222    1.0  0.88513  0.16552  0.23195  1.0000
  Cu  Cu5223    1.0  0.88513  0.00115  0.31528  1.0000
  Cu  Cu5224    1.0  0.97201  0.16552  0.18472  1.0000
  Cu  Cu5225    1.0  0.85714  0.00000  0.16667  1.0000
  Cu  Cu5226    1.0  0.85714  0.00000  0.25000  1.0000
  Cu  Cu5227    1.0  0.92857  0.08333  0.16667  1.0000
  Cu  Cu5228    1.0  0.92857  0.08333  0.25000  1.0000
  Cu  Cu5229    1.0  0.85714  0.02778  0.20833  1.0000
  Cu  Cu5230    1.0  0.85714  0.13888  0.29167  1.0000
  Cu  Cu5231    1.0  0.92857  0.11112  0.20833  1.0000
  Cu  Cu5232    1.0  0.92857  0.05555  0.29167  1.0000
  Cu  Cu5233    1.0  0.87143  0.08103  0.36667  1.0000
  Cu  Cu5234    1.0  0.98571  0.08563  0.46667  1.0000
  Cu  Cu5235    1.0  0.98571  0.08103  0.38333  1.0000
  Cu  Cu5236    1.0  0.87143  0.08563  0.45000  1.0000
  Cu  Cu5237    1.0  0.94286  0.16437  0.36667  1.0000
  Cu  Cu5238    1.0  0.91429  0.00230  0.46667  1.0000
  Cu  Cu5239    1.0  0.91429  0.16437  0.38333  1.0000
  Cu  Cu5240    1.0  0.94286  0.00230  0.45000  1.0000
  Cu  Cu5241    1.0  0.90059  0.08448  0.43472  1.0000
  Cu  Cu5242    1.0  0.95656  0.08218  0.39862  1.0000
  Cu  Cu5243    1.0  0.95656  0.08448  0.48195  1.0000
  Cu  Cu5244    1.0  0.90059  0.08218  0.35138  1.0000
  Cu  Cu5245    1.0  0.97201  0.00115  0.43472  1.0000
  Cu  Cu5246    1.0  0.88513  0.16552  0.39862  1.0000
  Cu  Cu5247    1.0  0.88513  0.00115  0.48195  1.0000
  Cu  Cu5248    1.0  0.97201  0.16552  0.35138  1.0000
  Cu  Cu5249    1.0  0.85714  0.00000  0.33333  1.0000
  Cu  Cu5250    1.0  0.85714  0.00000  0.41667  1.0000
  Cu  Cu5251    1.0  0.92857  0.08333  0.33333  1.0000
  Cu  Cu5252    1.0  0.92857  0.08333  0.41667  1.0000
  Cu  Cu5253    1.0  0.85714  0.02778  0.37500  1.0000
  Cu  Cu5254    1.0  0.85714  0.13888  0.45833  1.0000
  Cu  Cu5255    1.0  0.92857  0.11112  0.37500  1.0000
  Cu  Cu5256    1.0  0.92857  0.05555  0.45833  1.0000
  Cu  Cu5257    1.0  0.87143  0.08103  0.53333  1.0000
  Cu  Cu5258    1.0  0.98571  0.08563  0.63333  1.0000
  Cu  Cu5259    1.0  0.98571  0.08103  0.55000  1.0000
  Cu  Cu5260    1.0  0.87143  0.08563  0.61667  1.0000
  Cu  Cu5261    1.0  0.94286  0.16437  0.53333  1.0000
  Cu  Cu5262    1.0  0.91429  0.00230  0.63333  1.0000
  Cu  Cu5263    1.0  0.91429  0.16437  0.55000  1.0000
  Cu  Cu5264    1.0  0.94286  0.00230  0.61667  1.0000
  Cu  Cu5265    1.0  0.90059  0.08448  0.60138  1.0000
  Cu  Cu5266    1.0  0.95656  0.08218  0.56528  1.0000
  Cu  Cu5267    1.0  0.95656  0.08448  0.64862  1.0000
  Cu  Cu5268    1.0  0.90059  0.08218  0.51805  1.0000
  Cu  Cu5269    1.0  0.97201  0.00115  0.60138  1.0000
  Cu  Cu5270    1.0  0.88513  0.16552  0.56528  1.0000
  Cu  Cu5271    1.0  0.88513  0.00115  0.64862  1.0000
  Cu  Cu5272    1.0  0.97201  0.16552  0.51805  1.0000
  Cu  Cu5273    1.0  0.85714  0.00000  0.50000  1.0000
  Cu  Cu5274    1.0  0.85714  0.00000  0.58333  1.0000
  Cu  Cu5275    1.0  0.92857  0.08333  0.50000  1.0000
  Cu  Cu5276    1.0  0.92857  0.08333  0.58333  1.0000
  Cu  Cu5277    1.0  0.85714  0.02778  0.54167  1.0000
  Cu  Cu5278    1.0  0.85714  0.13888  0.62500  1.0000
  Cu  Cu5279    1.0  0.92857  0.11112  0.54167  1.0000
  Cu  Cu5280    1.0  0.92857  0.05555  0.62500  1.0000
  Cu  Cu5281    1.0  0.87143  0.08103  0.70000  1.0000
  Cu  Cu5282    1.0  0.98571  0.08563  0.80000  1.0000
  Cu  Cu5283    1.0  0.98571  0.08103  0.71667  1.0000
  Cu  Cu5284    1.0  0.87143  0.08563  0.78333  1.0000
  Cu  Cu5285    1.0  0.94286  0.16437  0.70000  1.0000
  Cu  Cu5286    1.0  0.91429  0.00230  0.80000  1.0000
  Cu  Cu5287    1.0  0.91429  0.16437  0.71667  1.0000
  Cu  Cu5288    1.0  0.94286  0.00230  0.78333  1.0000
  Cu  Cu5289    1.0  0.90059  0.08448  0.76805  1.0000
  Cu  Cu5290    1.0  0.95656  0.08218  0.73195  1.0000
  Cu  Cu5291    1.0  0.95656  0.08448  0.81528  1.0000
  Cu  Cu5292    1.0  0.90059  0.08218  0.68472  1.0000
  Cu  Cu5293    1.0  0.97201  0.00115  0.76805  1.0000
  Cu  Cu5294    1.0  0.88513  0.16552  0.73195  1.0000
  Cu  Cu5295    1.0  0.88513  0.00115  0.81528  1.0000
  Cu  Cu5296    1.0  0.97201  0.16552  0.68472  1.0000
  Cu  Cu5297    1.0  0.85714  0.00000  0.66667  1.0000
  Cu  Cu5298    1.0  0.85714  0.00000  0.75000  1.0000
  Cu  Cu5299    1.0  0.92857  0.08333  0.66667  1.0000
  Cu  Cu5300    1.0  0.92857  0.08333  0.75000  1.0000
  Cu  Cu5301    1.0  0.85714  0.02778  0.70833  1.0000
  Cu  Cu5302    1.0  0.85714  0.13888  0.79167  1.0000
  Cu  Cu5303    1.0  0.92857  0.11112  0.70833  1.0000
  Cu  Cu5304    1.0  0.92857  0.05555  0.79167  1.0000
  Cu  Cu5305    1.0  0.87143  0.08103  0.86667  1.0000
  Cu  Cu5306    1.0  0.98571  0.08563  0.96667  1.0000
  Cu  Cu5307    1.0  0.98571  0.08103  0.88333  1.0000
  Cu  Cu5308    1.0  0.87143  0.08563  0.95000  1.0000
  Cu  Cu5309    1.0  0.94286  0.16437  0.86667  1.0000
  Cu  Cu5310    1.0  0.91429  0.00230  0.96667  1.0000
  Cu  Cu5311    1.0  0.91429  0.16437  0.88333  1.0000
  Cu  Cu5312    1.0  0.94286  0.00230  0.95000  1.0000
  Cu  Cu5313    1.0  0.90059  0.08448  0.93472  1.0000
  Cu  Cu5314    1.0  0.95656  0.08218  0.89862  1.0000
  Cu  Cu5315    1.0  0.95656  0.08448  0.98195  1.0000
  Cu  Cu5316    1.0  0.90059  0.08218  0.85138  1.0000
  Cu  Cu5317    1.0  0.97201  0.00115  0.93472  1.0000
  Cu  Cu5318    1.0  0.88513  0.16552  0.89862  1.0000
  Cu  Cu5319    1.0  0.88513  0.00115  0.98195  1.0000
  Cu  Cu5320    1.0  0.97201  0.16552  0.85138  1.0000
  Cu  Cu5321    1.0  0.85714  0.00000  0.83333  1.0000
  Cu  Cu5322    1.0  0.85714  0.00000  0.91667  1.0000
  Cu  Cu5323    1.0  0.92857  0.08333  0.83333  1.0000
  Cu  Cu5324    1.0  0.92857  0.08333  0.91667  1.0000
  Cu  Cu5325    1.0  0.85714  0.02778  0.87500  1.0000
  Cu  Cu5326    1.0  0.85714  0.13888  0.95833  1.0000
  Cu  Cu5327    1.0  0.92857  0.11112  0.87500  1.0000
  Cu  Cu5328    1.0  0.92857  0.05555  0.95833  1.0000
  Cu  Cu5329    1.0  0.87143  0.24770  0.03333  1.0000
  Cu  Cu5330    1.0  0.98571  0.25230  0.13333  1.0000
  Cu  Cu5331    1.0  0.98571  0.24770  0.05000  1.0000
  Cu  Cu5332    1.0  0.87143  0.25230  0.11667  1.0000
  Cu  Cu5333    1.0  0.94286  0.33103  0.03333  1.0000
  Cu  Cu5334    1.0  0.91429  0.16897  0.13333  1.0000
  Cu  Cu5335    1.0  0.91429  0.33103  0.05000  1.0000
  Cu  Cu5336    1.0  0.94286  0.16897  0.11667  1.0000
  Cu  Cu5337    1.0  0.90059  0.25115  0.10138  1.0000
  Cu  Cu5338    1.0  0.95656  0.24885  0.06528  1.0000
  Cu  Cu5339    1.0  0.95656  0.25115  0.14862  1.0000
  Cu  Cu5340    1.0  0.90059  0.24885  0.01805  1.0000
  Cu  Cu5341    1.0  0.97201  0.16782  0.10138  1.0000
  Cu  Cu5342    1.0  0.88513  0.33218  0.06528  1.0000
  Cu  Cu5343    1.0  0.88513  0.16782  0.14862  1.0000
  Cu  Cu5344    1.0  0.97201  0.33218  0.01805  1.0000
  Cu  Cu5345    1.0  0.85714  0.16667  0.00000  1.0000
  Cu  Cu5346    1.0  0.85714  0.16667  0.08333  1.0000
  Cu  Cu5347    1.0  0.92857  0.25000  0.00000  1.0000
  Cu  Cu5348    1.0  0.92857  0.25000  0.08333  1.0000
  Cu  Cu5349    1.0  0.85714  0.19445  0.04167  1.0000
  Cu  Cu5350    1.0  0.85714  0.30555  0.12500  1.0000
  Cu  Cu5351    1.0  0.92857  0.27778  0.04167  1.0000
  Cu  Cu5352    1.0  0.92857  0.22222  0.12500  1.0000
  Cu  Cu5353    1.0  0.87143  0.24770  0.20000  1.0000
  Cu  Cu5354    1.0  0.98571  0.25230  0.30000  1.0000
  Cu  Cu5355    1.0  0.98571  0.24770  0.21667  1.0000
  Cu  Cu5356    1.0  0.87143  0.25230  0.28333  1.0000
  Cu  Cu5357    1.0  0.94286  0.33103  0.20000  1.0000
  Cu  Cu5358    1.0  0.91429  0.16897  0.30000  1.0000
  Cu  Cu5359    1.0  0.91429  0.33103  0.21667  1.0000
  Cu  Cu5360    1.0  0.94286  0.16897  0.28333  1.0000
  Cu  Cu5361    1.0  0.90059  0.25115  0.26805  1.0000
  Cu  Cu5362    1.0  0.95656  0.24885  0.23195  1.0000
  Cu  Cu5363    1.0  0.95656  0.25115  0.31528  1.0000
  Cu  Cu5364    1.0  0.90059  0.24885  0.18472  1.0000
  Cu  Cu5365    1.0  0.97201  0.16782  0.26805  1.0000
  Cu  Cu5366    1.0  0.88513  0.33218  0.23195  1.0000
  Cu  Cu5367    1.0  0.88513  0.16782  0.31528  1.0000
  Cu  Cu5368    1.0  0.97201  0.33218  0.18472  1.0000
  Cu  Cu5369    1.0  0.85714  0.16667  0.16667  1.0000
  Cu  Cu5370    1.0  0.85714  0.16667  0.25000  1.0000
  Cu  Cu5371    1.0  0.92857  0.25000  0.16667  1.0000
  Cu  Cu5372    1.0  0.92857  0.25000  0.25000  1.0000
  Cu  Cu5373    1.0  0.85714  0.19445  0.20833  1.0000
  Cu  Cu5374    1.0  0.85714  0.30555  0.29167  1.0000
  Cu  Cu5375    1.0  0.92857  0.27778  0.20833  1.0000
  Cu  Cu5376    1.0  0.92857  0.22222  0.29167  1.0000
  Cu  Cu5377    1.0  0.87143  0.24770  0.36667  1.0000
  Cu  Cu5378    1.0  0.98571  0.25230  0.46667  1.0000
  Cu  Cu5379    1.0  0.98571  0.24770  0.38333  1.0000
  Cu  Cu5380    1.0  0.87143  0.25230  0.45000  1.0000
  Cu  Cu5381    1.0  0.94286  0.33103  0.36667  1.0000
  Cu  Cu5382    1.0  0.91429  0.16897  0.46667  1.0000
  Cu  Cu5383    1.0  0.91429  0.33103  0.38333  1.0000
  Cu  Cu5384    1.0  0.94286  0.16897  0.45000  1.0000
  Cu  Cu5385    1.0  0.90059  0.25115  0.43472  1.0000
  Cu  Cu5386    1.0  0.95656  0.24885  0.39862  1.0000
  Cu  Cu5387    1.0  0.95656  0.25115  0.48195  1.0000
  Cu  Cu5388    1.0  0.90059  0.24885  0.35138  1.0000
  Cu  Cu5389    1.0  0.97201  0.16782  0.43472  1.0000
  Cu  Cu5390    1.0  0.88513  0.33218  0.39862  1.0000
  Cu  Cu5391    1.0  0.88513  0.16782  0.48195  1.0000
  Cu  Cu5392    1.0  0.97201  0.33218  0.35138  1.0000
  Cu  Cu5393    1.0  0.85714  0.16667  0.33333  1.0000
  Cu  Cu5394    1.0  0.85714  0.16667  0.41667  1.0000
  Cu  Cu5395    1.0  0.92857  0.25000  0.33333  1.0000
  Cu  Cu5396    1.0  0.92857  0.25000  0.41667  1.0000
  Cu  Cu5397    1.0  0.85714  0.19445  0.37500  1.0000
  Cu  Cu5398    1.0  0.85714  0.30555  0.45833  1.0000
  Cu  Cu5399    1.0  0.92857  0.27778  0.37500  1.0000
  Cu  Cu5400    1.0  0.92857  0.22222  0.45833  1.0000
  Cu  Cu5401    1.0  0.87143  0.24770  0.53333  1.0000
  Cu  Cu5402    1.0  0.98571  0.25230  0.63333  1.0000
  Cu  Cu5403    1.0  0.98571  0.24770  0.55000  1.0000
  Cu  Cu5404    1.0  0.87143  0.25230  0.61667  1.0000
  Cu  Cu5405    1.0  0.94286  0.33103  0.53333  1.0000
  Cu  Cu5406    1.0  0.91429  0.16897  0.63333  1.0000
  Cu  Cu5407    1.0  0.91429  0.33103  0.55000  1.0000
  Cu  Cu5408    1.0  0.94286  0.16897  0.61667  1.0000
  Cu  Cu5409    1.0  0.90059  0.25115  0.60138  1.0000
  Cu  Cu5410    1.0  0.95656  0.24885  0.56528  1.0000
  Cu  Cu5411    1.0  0.95656  0.25115  0.64862  1.0000
  Cu  Cu5412    1.0  0.90059  0.24885  0.51805  1.0000
  Cu  Cu5413    1.0  0.97201  0.16782  0.60138  1.0000
  Cu  Cu5414    1.0  0.88513  0.33218  0.56528  1.0000
  Cu  Cu5415    1.0  0.88513  0.16782  0.64862  1.0000
  Cu  Cu5416    1.0  0.97201  0.33218  0.51805  1.0000
  Cu  Cu5417    1.0  0.85714  0.16667  0.50000  1.0000
  Cu  Cu5418    1.0  0.85714  0.16667  0.58333  1.0000
  Cu  Cu5419    1.0  0.92857  0.25000  0.50000  1.0000
  Cu  Cu5420    1.0  0.92857  0.25000  0.58333  1.0000
  Cu  Cu5421    1.0  0.85714  0.19445  0.54167  1.0000
  Cu  Cu5422    1.0  0.85714  0.30555  0.62500  1.0000
  Cu  Cu5423    1.0  0.92857  0.27778  0.54167  1.0000
  Cu  Cu5424    1.0  0.92857  0.22222  0.62500  1.0000
  Cu  Cu5425    1.0  0.87143  0.24770  0.70000  1.0000
  Cu  Cu5426    1.0  0.98571  0.25230  0.80000  1.0000
  Cu  Cu5427    1.0  0.98571  0.24770  0.71667  1.0000
  Cu  Cu5428    1.0  0.87143  0.25230  0.78333  1.0000
  Cu  Cu5429    1.0  0.94286  0.33103  0.70000  1.0000
  Cu  Cu5430    1.0  0.91429  0.16897  0.80000  1.0000
  Cu  Cu5431    1.0  0.91429  0.33103  0.71667  1.0000
  Cu  Cu5432    1.0  0.94286  0.16897  0.78333  1.0000
  Cu  Cu5433    1.0  0.90059  0.25115  0.76805  1.0000
  Cu  Cu5434    1.0  0.95656  0.24885  0.73195  1.0000
  Cu  Cu5435    1.0  0.95656  0.25115  0.81528  1.0000
  Cu  Cu5436    1.0  0.90059  0.24885  0.68472  1.0000
  Cu  Cu5437    1.0  0.97201  0.16782  0.76805  1.0000
  Cu  Cu5438    1.0  0.88513  0.33218  0.73195  1.0000
  Cu  Cu5439    1.0  0.88513  0.16782  0.81528  1.0000
  Cu  Cu5440    1.0  0.97201  0.33218  0.68472  1.0000
  Cu  Cu5441    1.0  0.85714  0.16667  0.66667  1.0000
  Cu  Cu5442    1.0  0.85714  0.16667  0.75000  1.0000
  Cu  Cu5443    1.0  0.92857  0.25000  0.66667  1.0000
  Cu  Cu5444    1.0  0.92857  0.25000  0.75000  1.0000
  Cu  Cu5445    1.0  0.85714  0.19445  0.70833  1.0000
  Cu  Cu5446    1.0  0.85714  0.30555  0.79167  1.0000
  Cu  Cu5447    1.0  0.92857  0.27778  0.70833  1.0000
  Cu  Cu5448    1.0  0.92857  0.22222  0.79167  1.0000
  Cu  Cu5449    1.0  0.87143  0.24770  0.86667  1.0000
  Cu  Cu5450    1.0  0.98571  0.25230  0.96667  1.0000
  Cu  Cu5451    1.0  0.98571  0.24770  0.88333  1.0000
  Cu  Cu5452    1.0  0.87143  0.25230  0.95000  1.0000
  Cu  Cu5453    1.0  0.94286  0.33103  0.86667  1.0000
  Cu  Cu5454    1.0  0.91429  0.16897  0.96667  1.0000
  Cu  Cu5455    1.0  0.91429  0.33103  0.88333  1.0000
  Cu  Cu5456    1.0  0.94286  0.16897  0.95000  1.0000
  Cu  Cu5457    1.0  0.90059  0.25115  0.93472  1.0000
  Cu  Cu5458    1.0  0.95656  0.24885  0.89862  1.0000
  Cu  Cu5459    1.0  0.95656  0.25115  0.98195  1.0000
  Cu  Cu5460    1.0  0.90059  0.24885  0.85138  1.0000
  Cu  Cu5461    1.0  0.97201  0.16782  0.93472  1.0000
  Cu  Cu5462    1.0  0.88513  0.33218  0.89862  1.0000
  Cu  Cu5463    1.0  0.88513  0.16782  0.98195  1.0000
  Cu  Cu5464    1.0  0.97201  0.33218  0.85138  1.0000
  Cu  Cu5465    1.0  0.85714  0.16667  0.83333  1.0000
  Cu  Cu5466    1.0  0.85714  0.16667  0.91667  1.0000
  Cu  Cu5467    1.0  0.92857  0.25000  0.83333  1.0000
  Cu  Cu5468    1.0  0.92857  0.25000  0.91667  1.0000
  Cu  Cu5469    1.0  0.85714  0.19445  0.87500  1.0000
  Cu  Cu5470    1.0  0.85714  0.30555  0.95833  1.0000
  Cu  Cu5471    1.0  0.92857  0.27778  0.87500  1.0000
  Cu  Cu5472    1.0  0.92857  0.22222  0.95833  1.0000
  Cu  Cu5473    1.0  0.87143  0.41437  0.03333  1.0000
  Cu  Cu5474    1.0  0.98571  0.41897  0.13333  1.0000
  Cu  Cu5475    1.0  0.98571  0.41437  0.05000  1.0000
  Cu  Cu5476    1.0  0.87143  0.41897  0.11667  1.0000
  Cu  Cu5477    1.0  0.94286  0.49770  0.03333  1.0000
  Cu  Cu5478    1.0  0.91429  0.33563  0.13333  1.0000
  Cu  Cu5479    1.0  0.91429  0.49770  0.05000  1.0000
  Cu  Cu5480    1.0  0.94286  0.33563  0.11667  1.0000
  Cu  Cu5481    1.0  0.90059  0.41782  0.10138  1.0000
  Cu  Cu5482    1.0  0.95656  0.41552  0.06528  1.0000
  Cu  Cu5483    1.0  0.95656  0.41782  0.14862  1.0000
  Cu  Cu5484    1.0  0.90059  0.41552  0.01805  1.0000
  Cu  Cu5485    1.0  0.97201  0.33448  0.10138  1.0000
  Cu  Cu5486    1.0  0.88513  0.49885  0.06528  1.0000
  Cu  Cu5487    1.0  0.88513  0.33448  0.14862  1.0000
  Cu  Cu5488    1.0  0.97201  0.49885  0.01805  1.0000
  Cu  Cu5489    1.0  0.85714  0.33333  0.00000  1.0000
  Cu  Cu5490    1.0  0.85714  0.33333  0.08333  1.0000
  Cu  Cu5491    1.0  0.92857  0.41667  0.00000  1.0000
  Cu  Cu5492    1.0  0.92857  0.41667  0.08333  1.0000
  Cu  Cu5493    1.0  0.85714  0.36112  0.04167  1.0000
  Cu  Cu5494    1.0  0.85714  0.47222  0.12500  1.0000
  Cu  Cu5495    1.0  0.92857  0.44445  0.04167  1.0000
  Cu  Cu5496    1.0  0.92857  0.38888  0.12500  1.0000
  Cu  Cu5497    1.0  0.87143  0.41437  0.20000  1.0000
  Cu  Cu5498    1.0  0.98571  0.41897  0.30000  1.0000
  Cu  Cu5499    1.0  0.98571  0.41437  0.21667  1.0000
  Cu  Cu5500    1.0  0.87143  0.41897  0.28333  1.0000
  Cu  Cu5501    1.0  0.94286  0.49770  0.20000  1.0000
  Cu  Cu5502    1.0  0.91429  0.33563  0.30000  1.0000
  Cu  Cu5503    1.0  0.91429  0.49770  0.21667  1.0000
  Cu  Cu5504    1.0  0.94286  0.33563  0.28333  1.0000
  Cu  Cu5505    1.0  0.90059  0.41782  0.26805  1.0000
  Cu  Cu5506    1.0  0.95656  0.41552  0.23195  1.0000
  Cu  Cu5507    1.0  0.95656  0.41782  0.31528  1.0000
  Cu  Cu5508    1.0  0.90059  0.41552  0.18472  1.0000
  Cu  Cu5509    1.0  0.97201  0.33448  0.26805  1.0000
  Cu  Cu5510    1.0  0.88513  0.49885  0.23195  1.0000
  Cu  Cu5511    1.0  0.88513  0.33448  0.31528  1.0000
  Cu  Cu5512    1.0  0.97201  0.49885  0.18472  1.0000
  Cu  Cu5513    1.0  0.85714  0.33333  0.16667  1.0000
  Cu  Cu5514    1.0  0.85714  0.33333  0.25000  1.0000
  Cu  Cu5515    1.0  0.92857  0.41667  0.16667  1.0000
  Cu  Cu5516    1.0  0.92857  0.41667  0.25000  1.0000
  Cu  Cu5517    1.0  0.85714  0.36112  0.20833  1.0000
  Cu  Cu5518    1.0  0.85714  0.47222  0.29167  1.0000
  Cu  Cu5519    1.0  0.92857  0.44445  0.20833  1.0000
  Cu  Cu5520    1.0  0.92857  0.38888  0.29167  1.0000
  Cu  Cu5521    1.0  0.87143  0.41437  0.36667  1.0000
  Cu  Cu5522    1.0  0.98571  0.41897  0.46667  1.0000
  Cu  Cu5523    1.0  0.98571  0.41437  0.38333  1.0000
  Cu  Cu5524    1.0  0.87143  0.41897  0.45000  1.0000
  Cu  Cu5525    1.0  0.94286  0.49770  0.36667  1.0000
  Cu  Cu5526    1.0  0.91429  0.33563  0.46667  1.0000
  Cu  Cu5527    1.0  0.91429  0.49770  0.38333  1.0000
  Cu  Cu5528    1.0  0.94286  0.33563  0.45000  1.0000
  Cu  Cu5529    1.0  0.90059  0.41782  0.43472  1.0000
  Cu  Cu5530    1.0  0.95656  0.41552  0.39862  1.0000
  Cu  Cu5531    1.0  0.95656  0.41782  0.48195  1.0000
  Cu  Cu5532    1.0  0.90059  0.41552  0.35138  1.0000
  Cu  Cu5533    1.0  0.97201  0.33448  0.43472  1.0000
  Cu  Cu5534    1.0  0.88513  0.49885  0.39862  1.0000
  Cu  Cu5535    1.0  0.88513  0.33448  0.48195  1.0000
  Cu  Cu5536    1.0  0.97201  0.49885  0.35138  1.0000
  Cu  Cu5537    1.0  0.85714  0.33333  0.33333  1.0000
  Cu  Cu5538    1.0  0.85714  0.33333  0.41667  1.0000
  Cu  Cu5539    1.0  0.92857  0.41667  0.33333  1.0000
  Cu  Cu5540    1.0  0.92857  0.41667  0.41667  1.0000
  Cu  Cu5541    1.0  0.85714  0.36112  0.37500  1.0000
  Cu  Cu5542    1.0  0.85714  0.47222  0.45833  1.0000
  Cu  Cu5543    1.0  0.92857  0.44445  0.37500  1.0000
  Cu  Cu5544    1.0  0.92857  0.38888  0.45833  1.0000
  Cu  Cu5545    1.0  0.87143  0.41437  0.53333  1.0000
  Cu  Cu5546    1.0  0.98571  0.41897  0.63333  1.0000
  Cu  Cu5547    1.0  0.98571  0.41437  0.55000  1.0000
  Cu  Cu5548    1.0  0.87143  0.41897  0.61667  1.0000
  Cu  Cu5549    1.0  0.94286  0.49770  0.53333  1.0000
  Cu  Cu5550    1.0  0.91429  0.33563  0.63333  1.0000
  Cu  Cu5551    1.0  0.91429  0.49770  0.55000  1.0000
  Cu  Cu5552    1.0  0.94286  0.33563  0.61667  1.0000
  Cu  Cu5553    1.0  0.90059  0.41782  0.60138  1.0000
  Cu  Cu5554    1.0  0.95656  0.41552  0.56528  1.0000
  Cu  Cu5555    1.0  0.95656  0.41782  0.64862  1.0000
  Cu  Cu5556    1.0  0.90059  0.41552  0.51805  1.0000
  Cu  Cu5557    1.0  0.97201  0.33448  0.60138  1.0000
  Cu  Cu5558    1.0  0.88513  0.49885  0.56528  1.0000
  Cu  Cu5559    1.0  0.88513  0.33448  0.64862  1.0000
  Cu  Cu5560    1.0  0.97201  0.49885  0.51805  1.0000
  Cu  Cu5561    1.0  0.85714  0.33333  0.50000  1.0000
  Cu  Cu5562    1.0  0.85714  0.33333  0.58333  1.0000
  Cu  Cu5563    1.0  0.92857  0.41667  0.50000  1.0000
  Cu  Cu5564    1.0  0.92857  0.41667  0.58333  1.0000
  Cu  Cu5565    1.0  0.85714  0.36112  0.54167  1.0000
  Cu  Cu5566    1.0  0.85714  0.47222  0.62500  1.0000
  Cu  Cu5567    1.0  0.92857  0.44445  0.54167  1.0000
  Cu  Cu5568    1.0  0.92857  0.38888  0.62500  1.0000
  Cu  Cu5569    1.0  0.87143  0.41437  0.70000  1.0000
  Cu  Cu5570    1.0  0.98571  0.41897  0.80000  1.0000
  Cu  Cu5571    1.0  0.98571  0.41437  0.71667  1.0000
  Cu  Cu5572    1.0  0.87143  0.41897  0.78333  1.0000
  Cu  Cu5573    1.0  0.94286  0.49770  0.70000  1.0000
  Cu  Cu5574    1.0  0.91429  0.33563  0.80000  1.0000
  Cu  Cu5575    1.0  0.91429  0.49770  0.71667  1.0000
  Cu  Cu5576    1.0  0.94286  0.33563  0.78333  1.0000
  Cu  Cu5577    1.0  0.90059  0.41782  0.76805  1.0000
  Cu  Cu5578    1.0  0.95656  0.41552  0.73195  1.0000
  Cu  Cu5579    1.0  0.95656  0.41782  0.81528  1.0000
  Cu  Cu5580    1.0  0.90059  0.41552  0.68472  1.0000
  Cu  Cu5581    1.0  0.97201  0.33448  0.76805  1.0000
  Cu  Cu5582    1.0  0.88513  0.49885  0.73195  1.0000
  Cu  Cu5583    1.0  0.88513  0.33448  0.81528  1.0000
  Cu  Cu5584    1.0  0.97201  0.49885  0.68472  1.0000
  Cu  Cu5585    1.0  0.85714  0.33333  0.66667  1.0000
  Cu  Cu5586    1.0  0.85714  0.33333  0.75000  1.0000
  Cu  Cu5587    1.0  0.92857  0.41667  0.66667  1.0000
  Cu  Cu5588    1.0  0.92857  0.41667  0.75000  1.0000
  Cu  Cu5589    1.0  0.85714  0.36112  0.70833  1.0000
  Cu  Cu5590    1.0  0.85714  0.47222  0.79167  1.0000
  Cu  Cu5591    1.0  0.92857  0.44445  0.70833  1.0000
  Cu  Cu5592    1.0  0.92857  0.38888  0.79167  1.0000
  Cu  Cu5593    1.0  0.87143  0.41437  0.86667  1.0000
  Cu  Cu5594    1.0  0.98571  0.41897  0.96667  1.0000
  Cu  Cu5595    1.0  0.98571  0.41437  0.88333  1.0000
  Cu  Cu5596    1.0  0.87143  0.41897  0.95000  1.0000
  Cu  Cu5597    1.0  0.94286  0.49770  0.86667  1.0000
  Cu  Cu5598    1.0  0.91429  0.33563  0.96667  1.0000
  Cu  Cu5599    1.0  0.91429  0.49770  0.88333  1.0000
  Cu  Cu5600    1.0  0.94286  0.33563  0.95000  1.0000
  Cu  Cu5601    1.0  0.90059  0.41782  0.93472  1.0000
  Cu  Cu5602    1.0  0.95656  0.41552  0.89862  1.0000
  Cu  Cu5603    1.0  0.95656  0.41782  0.98195  1.0000
  Cu  Cu5604    1.0  0.90059  0.41552  0.85138  1.0000
  Cu  Cu5605    1.0  0.97201  0.33448  0.93472  1.0000
  Cu  Cu5606    1.0  0.88513  0.49885  0.89862  1.0000
  Cu  Cu5607    1.0  0.88513  0.33448  0.98195  1.0000
  Cu  Cu5608    1.0  0.97201  0.49885  0.85138  1.0000
  Cu  Cu5609    1.0  0.85714  0.33333  0.83333  1.0000
  Cu  Cu5610    1.0  0.85714  0.33333  0.91667  1.0000
  Cu  Cu5611    1.0  0.92857  0.41667  0.83333  1.0000
  Cu  Cu5612    1.0  0.92857  0.41667  0.91667  1.0000
  Cu  Cu5613    1.0  0.85714  0.36112  0.87500  1.0000
  Cu  Cu5614    1.0  0.85714  0.47222  0.95833  1.0000
  Cu  Cu5615    1.0  0.92857  0.44445  0.87500  1.0000
  Cu  Cu5616    1.0  0.92857  0.38888  0.95833  1.0000
  Cu  Cu5617    1.0  0.87143  0.58103  0.03333  1.0000
  Cu  Cu5618    1.0  0.98571  0.58563  0.13333  1.0000
  Cu  Cu5619    1.0  0.98571  0.58103  0.05000  1.0000
  Cu  Cu5620    1.0  0.87143  0.58563  0.11667  1.0000
  Cu  Cu5621    1.0  0.94286  0.66437  0.03333  1.0000
  Cu  Cu5622    1.0  0.91429  0.50230  0.13333  1.0000
  Cu  Cu5623    1.0  0.91429  0.66437  0.05000  1.0000
  Cu  Cu5624    1.0  0.94286  0.50230  0.11667  1.0000
  Cu  Cu5625    1.0  0.90059  0.58448  0.10138  1.0000
  Cu  Cu5626    1.0  0.95656  0.58218  0.06528  1.0000
  Cu  Cu5627    1.0  0.95656  0.58448  0.14862  1.0000
  Cu  Cu5628    1.0  0.90059  0.58218  0.01805  1.0000
  Cu  Cu5629    1.0  0.97201  0.50115  0.10138  1.0000
  Cu  Cu5630    1.0  0.88513  0.66552  0.06528  1.0000
  Cu  Cu5631    1.0  0.88513  0.50115  0.14862  1.0000
  Cu  Cu5632    1.0  0.97201  0.66552  0.01805  1.0000
  Cu  Cu5633    1.0  0.85714  0.50000  0.00000  1.0000
  Cu  Cu5634    1.0  0.85714  0.50000  0.08333  1.0000
  Cu  Cu5635    1.0  0.92857  0.58333  0.00000  1.0000
  Cu  Cu5636    1.0  0.92857  0.58333  0.08333  1.0000
  Cu  Cu5637    1.0  0.85714  0.52778  0.04167  1.0000
  Cu  Cu5638    1.0  0.85714  0.63888  0.12500  1.0000
  Cu  Cu5639    1.0  0.92857  0.61112  0.04167  1.0000
  Cu  Cu5640    1.0  0.92857  0.55555  0.12500  1.0000
  Cu  Cu5641    1.0  0.87143  0.58103  0.20000  1.0000
  Cu  Cu5642    1.0  0.98571  0.58563  0.30000  1.0000
  Cu  Cu5643    1.0  0.98571  0.58103  0.21667  1.0000
  Cu  Cu5644    1.0  0.87143  0.58563  0.28333  1.0000
  Cu  Cu5645    1.0  0.94286  0.66437  0.20000  1.0000
  Cu  Cu5646    1.0  0.91429  0.50230  0.30000  1.0000
  Cu  Cu5647    1.0  0.91429  0.66437  0.21667  1.0000
  Cu  Cu5648    1.0  0.94286  0.50230  0.28333  1.0000
  Cu  Cu5649    1.0  0.90059  0.58448  0.26805  1.0000
  Cu  Cu5650    1.0  0.95656  0.58218  0.23195  1.0000
  Cu  Cu5651    1.0  0.95656  0.58448  0.31528  1.0000
  Cu  Cu5652    1.0  0.90059  0.58218  0.18472  1.0000
  Cu  Cu5653    1.0  0.97201  0.50115  0.26805  1.0000
  Cu  Cu5654    1.0  0.88513  0.66552  0.23195  1.0000
  Cu  Cu5655    1.0  0.88513  0.50115  0.31528  1.0000
  Cu  Cu5656    1.0  0.97201  0.66552  0.18472  1.0000
  Cu  Cu5657    1.0  0.85714  0.50000  0.16667  1.0000
  Cu  Cu5658    1.0  0.85714  0.50000  0.25000  1.0000
  Cu  Cu5659    1.0  0.92857  0.58333  0.16667  1.0000
  Cu  Cu5660    1.0  0.92857  0.58333  0.25000  1.0000
  Cu  Cu5661    1.0  0.85714  0.52778  0.20833  1.0000
  Cu  Cu5662    1.0  0.85714  0.63888  0.29167  1.0000
  Cu  Cu5663    1.0  0.92857  0.61112  0.20833  1.0000
  Cu  Cu5664    1.0  0.92857  0.55555  0.29167  1.0000
  Cu  Cu5665    1.0  0.87143  0.58103  0.36667  1.0000
  Cu  Cu5666    1.0  0.98571  0.58563  0.46667  1.0000
  Cu  Cu5667    1.0  0.98571  0.58103  0.38333  1.0000
  Cu  Cu5668    1.0  0.87143  0.58563  0.45000  1.0000
  Cu  Cu5669    1.0  0.94286  0.66437  0.36667  1.0000
  Cu  Cu5670    1.0  0.91429  0.50230  0.46667  1.0000
  Cu  Cu5671    1.0  0.91429  0.66437  0.38333  1.0000
  Cu  Cu5672    1.0  0.94286  0.50230  0.45000  1.0000
  Cu  Cu5673    1.0  0.90059  0.58448  0.43472  1.0000
  Cu  Cu5674    1.0  0.95656  0.58218  0.39862  1.0000
  Cu  Cu5675    1.0  0.95656  0.58448  0.48195  1.0000
  Cu  Cu5676    1.0  0.90059  0.58218  0.35138  1.0000
  Cu  Cu5677    1.0  0.97201  0.50115  0.43472  1.0000
  Cu  Cu5678    1.0  0.88513  0.66552  0.39862  1.0000
  Cu  Cu5679    1.0  0.88513  0.50115  0.48195  1.0000
  Cu  Cu5680    1.0  0.97201  0.66552  0.35138  1.0000
  Cu  Cu5681    1.0  0.85714  0.50000  0.33333  1.0000
  Cu  Cu5682    1.0  0.85714  0.50000  0.41667  1.0000
  Cu  Cu5683    1.0  0.92857  0.58333  0.33333  1.0000
  Cu  Cu5684    1.0  0.92857  0.58333  0.41667  1.0000
  Cu  Cu5685    1.0  0.85714  0.52778  0.37500  1.0000
  Cu  Cu5686    1.0  0.85714  0.63888  0.45833  1.0000
  Cu  Cu5687    1.0  0.92857  0.61112  0.37500  1.0000
  Cu  Cu5688    1.0  0.92857  0.55555  0.45833  1.0000
  Cu  Cu5689    1.0  0.87143  0.58103  0.53333  1.0000
  Cu  Cu5690    1.0  0.98571  0.58563  0.63333  1.0000
  Cu  Cu5691    1.0  0.98571  0.58103  0.55000  1.0000
  Cu  Cu5692    1.0  0.87143  0.58563  0.61667  1.0000
  Cu  Cu5693    1.0  0.94286  0.66437  0.53333  1.0000
  Cu  Cu5694    1.0  0.91429  0.50230  0.63333  1.0000
  Cu  Cu5695    1.0  0.91429  0.66437  0.55000  1.0000
  Cu  Cu5696    1.0  0.94286  0.50230  0.61667  1.0000
  Cu  Cu5697    1.0  0.90059  0.58448  0.60138  1.0000
  Cu  Cu5698    1.0  0.95656  0.58218  0.56528  1.0000
  Cu  Cu5699    1.0  0.95656  0.58448  0.64862  1.0000
  Cu  Cu5700    1.0  0.90059  0.58218  0.51805  1.0000
  Cu  Cu5701    1.0  0.97201  0.50115  0.60138  1.0000
  Cu  Cu5702    1.0  0.88513  0.66552  0.56528  1.0000
  Cu  Cu5703    1.0  0.88513  0.50115  0.64862  1.0000
  Cu  Cu5704    1.0  0.97201  0.66552  0.51805  1.0000
  Cu  Cu5705    1.0  0.85714  0.50000  0.50000  1.0000
  Cu  Cu5706    1.0  0.85714  0.50000  0.58333  1.0000
  Cu  Cu5707    1.0  0.92857  0.58333  0.50000  1.0000
  Cu  Cu5708    1.0  0.92857  0.58333  0.58333  1.0000
  Cu  Cu5709    1.0  0.85714  0.52778  0.54167  1.0000
  Cu  Cu5710    1.0  0.85714  0.63888  0.62500  1.0000
  Cu  Cu5711    1.0  0.92857  0.61112  0.54167  1.0000
  Cu  Cu5712    1.0  0.92857  0.55555  0.62500  1.0000
  Cu  Cu5713    1.0  0.87143  0.58103  0.70000  1.0000
  Cu  Cu5714    1.0  0.98571  0.58563  0.80000  1.0000
  Cu  Cu5715    1.0  0.98571  0.58103  0.71667  1.0000
  Cu  Cu5716    1.0  0.87143  0.58563  0.78333  1.0000
  Cu  Cu5717    1.0  0.94286  0.66437  0.70000  1.0000
  Cu  Cu5718    1.0  0.91429  0.50230  0.80000  1.0000
  Cu  Cu5719    1.0  0.91429  0.66437  0.71667  1.0000
  Cu  Cu5720    1.0  0.94286  0.50230  0.78333  1.0000
  Cu  Cu5721    1.0  0.90059  0.58448  0.76805  1.0000
  Cu  Cu5722    1.0  0.95656  0.58218  0.73195  1.0000
  Cu  Cu5723    1.0  0.95656  0.58448  0.81528  1.0000
  Cu  Cu5724    1.0  0.90059  0.58218  0.68472  1.0000
  Cu  Cu5725    1.0  0.97201  0.50115  0.76805  1.0000
  Cu  Cu5726    1.0  0.88513  0.66552  0.73195  1.0000
  Cu  Cu5727    1.0  0.88513  0.50115  0.81528  1.0000
  Cu  Cu5728    1.0  0.97201  0.66552  0.68472  1.0000
  Cu  Cu5729    1.0  0.85714  0.50000  0.66667  1.0000
  Cu  Cu5730    1.0  0.85714  0.50000  0.75000  1.0000
  Cu  Cu5731    1.0  0.92857  0.58333  0.66667  1.0000
  Cu  Cu5732    1.0  0.92857  0.58333  0.75000  1.0000
  Cu  Cu5733    1.0  0.85714  0.52778  0.70833  1.0000
  Cu  Cu5734    1.0  0.85714  0.63888  0.79167  1.0000
  Cu  Cu5735    1.0  0.92857  0.61112  0.70833  1.0000
  Cu  Cu5736    1.0  0.92857  0.55555  0.79167  1.0000
  Cu  Cu5737    1.0  0.87143  0.58103  0.86667  1.0000
  Cu  Cu5738    1.0  0.98571  0.58563  0.96667  1.0000
  Cu  Cu5739    1.0  0.98571  0.58103  0.88333  1.0000
  Cu  Cu5740    1.0  0.87143  0.58563  0.95000  1.0000
  Cu  Cu5741    1.0  0.94286  0.66437  0.86667  1.0000
  Cu  Cu5742    1.0  0.91429  0.50230  0.96667  1.0000
  Cu  Cu5743    1.0  0.91429  0.66437  0.88333  1.0000
  Cu  Cu5744    1.0  0.94286  0.50230  0.95000  1.0000
  Cu  Cu5745    1.0  0.90059  0.58448  0.93472  1.0000
  Cu  Cu5746    1.0  0.95656  0.58218  0.89862  1.0000
  Cu  Cu5747    1.0  0.95656  0.58448  0.98195  1.0000
  Cu  Cu5748    1.0  0.90059  0.58218  0.85138  1.0000
  Cu  Cu5749    1.0  0.97201  0.50115  0.93472  1.0000
  Cu  Cu5750    1.0  0.88513  0.66552  0.89862  1.0000
  Cu  Cu5751    1.0  0.88513  0.50115  0.98195  1.0000
  Cu  Cu5752    1.0  0.97201  0.66552  0.85138  1.0000
  Cu  Cu5753    1.0  0.85714  0.50000  0.83333  1.0000
  Cu  Cu5754    1.0  0.85714  0.50000  0.91667  1.0000
  Cu  Cu5755    1.0  0.92857  0.58333  0.83333  1.0000
  Cu  Cu5756    1.0  0.92857  0.58333  0.91667  1.0000
  Cu  Cu5757    1.0  0.85714  0.52778  0.87500  1.0000
  Cu  Cu5758    1.0  0.85714  0.63888  0.95833  1.0000
  Cu  Cu5759    1.0  0.92857  0.61112  0.87500  1.0000
  Cu  Cu5760    1.0  0.92857  0.55555  0.95833  1.0000
  Cu  Cu5761    1.0  0.87143  0.74770  0.03333  1.0000
  Cu  Cu5762    1.0  0.98571  0.75230  0.13333  1.0000
  Cu  Cu5763    1.0  0.98571  0.74770  0.05000  1.0000
  Cu  Cu5764    1.0  0.87143  0.75230  0.11667  1.0000
  Cu  Cu5765    1.0  0.94286  0.83103  0.03333  1.0000
  Cu  Cu5766    1.0  0.91429  0.66897  0.13333  1.0000
  Cu  Cu5767    1.0  0.91429  0.83103  0.05000  1.0000
  Cu  Cu5768    1.0  0.94286  0.66897  0.11667  1.0000
  Cu  Cu5769    1.0  0.90059  0.75115  0.10138  1.0000
  Cu  Cu5770    1.0  0.95656  0.74885  0.06528  1.0000
  Cu  Cu5771    1.0  0.95656  0.75115  0.14862  1.0000
  Cu  Cu5772    1.0  0.90059  0.74885  0.01805  1.0000
  Cu  Cu5773    1.0  0.97201  0.66782  0.10138  1.0000
  Cu  Cu5774    1.0  0.88513  0.83218  0.06528  1.0000
  Cu  Cu5775    1.0  0.88513  0.66782  0.14862  1.0000
  Cu  Cu5776    1.0  0.97201  0.83218  0.01805  1.0000
  Cu  Cu5777    1.0  0.85714  0.66667  0.00000  1.0000
  Cu  Cu5778    1.0  0.85714  0.66667  0.08333  1.0000
  Cu  Cu5779    1.0  0.92857  0.75000  0.00000  1.0000
  Cu  Cu5780    1.0  0.92857  0.75000  0.08333  1.0000
  Cu  Cu5781    1.0  0.85714  0.69445  0.04167  1.0000
  Cu  Cu5782    1.0  0.85714  0.80555  0.12500  1.0000
  Cu  Cu5783    1.0  0.92857  0.77778  0.04167  1.0000
  Cu  Cu5784    1.0  0.92857  0.72222  0.12500  1.0000
  Cu  Cu5785    1.0  0.87143  0.74770  0.20000  1.0000
  Cu  Cu5786    1.0  0.98571  0.75230  0.30000  1.0000
  Cu  Cu5787    1.0  0.98571  0.74770  0.21667  1.0000
  Cu  Cu5788    1.0  0.87143  0.75230  0.28333  1.0000
  Cu  Cu5789    1.0  0.94286  0.83103  0.20000  1.0000
  Cu  Cu5790    1.0  0.91429  0.66897  0.30000  1.0000
  Cu  Cu5791    1.0  0.91429  0.83103  0.21667  1.0000
  Cu  Cu5792    1.0  0.94286  0.66897  0.28333  1.0000
  Cu  Cu5793    1.0  0.90059  0.75115  0.26805  1.0000
  Cu  Cu5794    1.0  0.95656  0.74885  0.23195  1.0000
  Cu  Cu5795    1.0  0.95656  0.75115  0.31528  1.0000
  Cu  Cu5796    1.0  0.90059  0.74885  0.18472  1.0000
  Cu  Cu5797    1.0  0.97201  0.66782  0.26805  1.0000
  Cu  Cu5798    1.0  0.88513  0.83218  0.23195  1.0000
  Cu  Cu5799    1.0  0.88513  0.66782  0.31528  1.0000
  Cu  Cu5800    1.0  0.97201  0.83218  0.18472  1.0000
  Cu  Cu5801    1.0  0.85714  0.66667  0.16667  1.0000
  Cu  Cu5802    1.0  0.85714  0.66667  0.25000  1.0000
  Cu  Cu5803    1.0  0.92857  0.75000  0.16667  1.0000
  Cu  Cu5804    1.0  0.92857  0.75000  0.25000  1.0000
  Cu  Cu5805    1.0  0.85714  0.69445  0.20833  1.0000
  Cu  Cu5806    1.0  0.85714  0.80555  0.29167  1.0000
  Cu  Cu5807    1.0  0.92857  0.77778  0.20833  1.0000
  Cu  Cu5808    1.0  0.92857  0.72222  0.29167  1.0000
  Cu  Cu5809    1.0  0.87143  0.74770  0.36667  1.0000
  Cu  Cu5810    1.0  0.98571  0.75230  0.46667  1.0000
  Cu  Cu5811    1.0  0.98571  0.74770  0.38333  1.0000
  Cu  Cu5812    1.0  0.87143  0.75230  0.45000  1.0000
  Cu  Cu5813    1.0  0.94286  0.83103  0.36667  1.0000
  Cu  Cu5814    1.0  0.91429  0.66897  0.46667  1.0000
  Cu  Cu5815    1.0  0.91429  0.83103  0.38333  1.0000
  Cu  Cu5816    1.0  0.94286  0.66897  0.45000  1.0000
  Cu  Cu5817    1.0  0.90059  0.75115  0.43472  1.0000
  Cu  Cu5818    1.0  0.95656  0.74885  0.39862  1.0000
  Cu  Cu5819    1.0  0.95656  0.75115  0.48195  1.0000
  Cu  Cu5820    1.0  0.90059  0.74885  0.35138  1.0000
  Cu  Cu5821    1.0  0.97201  0.66782  0.43472  1.0000
  Cu  Cu5822    1.0  0.88513  0.83218  0.39862  1.0000
  Cu  Cu5823    1.0  0.88513  0.66782  0.48195  1.0000
  Cu  Cu5824    1.0  0.97201  0.83218  0.35138  1.0000
  Cu  Cu5825    1.0  0.85714  0.66667  0.33333  1.0000
  Cu  Cu5826    1.0  0.85714  0.66667  0.41667  1.0000
  Cu  Cu5827    1.0  0.92857  0.75000  0.33333  1.0000
  Cu  Cu5828    1.0  0.92857  0.75000  0.41667  1.0000
  Cu  Cu5829    1.0  0.85714  0.69445  0.37500  1.0000
  Cu  Cu5830    1.0  0.85714  0.80555  0.45833  1.0000
  Cu  Cu5831    1.0  0.92857  0.77778  0.37500  1.0000
  Cu  Cu5832    1.0  0.92857  0.72222  0.45833  1.0000
  Cu  Cu5833    1.0  0.87143  0.74770  0.53333  1.0000
  Cu  Cu5834    1.0  0.98571  0.75230  0.63333  1.0000
  Cu  Cu5835    1.0  0.98571  0.74770  0.55000  1.0000
  Cu  Cu5836    1.0  0.87143  0.75230  0.61667  1.0000
  Cu  Cu5837    1.0  0.94286  0.83103  0.53333  1.0000
  Cu  Cu5838    1.0  0.91429  0.66897  0.63333  1.0000
  Cu  Cu5839    1.0  0.91429  0.83103  0.55000  1.0000
  Cu  Cu5840    1.0  0.94286  0.66897  0.61667  1.0000
  Cu  Cu5841    1.0  0.90059  0.75115  0.60138  1.0000
  Cu  Cu5842    1.0  0.95656  0.74885  0.56528  1.0000
  Cu  Cu5843    1.0  0.95656  0.75115  0.64862  1.0000
  Cu  Cu5844    1.0  0.90059  0.74885  0.51805  1.0000
  Cu  Cu5845    1.0  0.97201  0.66782  0.60138  1.0000
  Cu  Cu5846    1.0  0.88513  0.83218  0.56528  1.0000
  Cu  Cu5847    1.0  0.88513  0.66782  0.64862  1.0000
  Cu  Cu5848    1.0  0.97201  0.83218  0.51805  1.0000
  Cu  Cu5849    1.0  0.85714  0.66667  0.50000  1.0000
  Cu  Cu5850    1.0  0.85714  0.66667  0.58333  1.0000
  Cu  Cu5851    1.0  0.92857  0.75000  0.50000  1.0000
  Cu  Cu5852    1.0  0.92857  0.75000  0.58333  1.0000
  Cu  Cu5853    1.0  0.85714  0.69445  0.54167  1.0000
  Cu  Cu5854    1.0  0.85714  0.80555  0.62500  1.0000
  Cu  Cu5855    1.0  0.92857  0.77778  0.54167  1.0000
  Cu  Cu5856    1.0  0.92857  0.72222  0.62500  1.0000
  Cu  Cu5857    1.0  0.87143  0.74770  0.70000  1.0000
  Cu  Cu5858    1.0  0.98571  0.75230  0.80000  1.0000
  Cu  Cu5859    1.0  0.98571  0.74770  0.71667  1.0000
  Cu  Cu5860    1.0  0.87143  0.75230  0.78333  1.0000
  Cu  Cu5861    1.0  0.94286  0.83103  0.70000  1.0000
  Cu  Cu5862    1.0  0.91429  0.66897  0.80000  1.0000
  Cu  Cu5863    1.0  0.91429  0.83103  0.71667  1.0000
  Cu  Cu5864    1.0  0.94286  0.66897  0.78333  1.0000
  Cu  Cu5865    1.0  0.90059  0.75115  0.76805  1.0000
  Cu  Cu5866    1.0  0.95656  0.74885  0.73195  1.0000
  Cu  Cu5867    1.0  0.95656  0.75115  0.81528  1.0000
  Cu  Cu5868    1.0  0.90059  0.74885  0.68472  1.0000
  Cu  Cu5869    1.0  0.97201  0.66782  0.76805  1.0000
  Cu  Cu5870    1.0  0.88513  0.83218  0.73195  1.0000
  Cu  Cu5871    1.0  0.88513  0.66782  0.81528  1.0000
  Cu  Cu5872    1.0  0.97201  0.83218  0.68472  1.0000
  Cu  Cu5873    1.0  0.85714  0.66667  0.66667  1.0000
  Cu  Cu5874    1.0  0.85714  0.66667  0.75000  1.0000
  Cu  Cu5875    1.0  0.92857  0.75000  0.66667  1.0000
  Cu  Cu5876    1.0  0.92857  0.75000  0.75000  1.0000
  Cu  Cu5877    1.0  0.85714  0.69445  0.70833  1.0000
  Cu  Cu5878    1.0  0.85714  0.80555  0.79167  1.0000
  Cu  Cu5879    1.0  0.92857  0.77778  0.70833  1.0000
  Cu  Cu5880    1.0  0.92857  0.72222  0.79167  1.0000
  Cu  Cu5881    1.0  0.87143  0.74770  0.86667  1.0000
  Cu  Cu5882    1.0  0.98571  0.75230  0.96667  1.0000
  Cu  Cu5883    1.0  0.98571  0.74770  0.88333  1.0000
  Cu  Cu5884    1.0  0.87143  0.75230  0.95000  1.0000
  Cu  Cu5885    1.0  0.94286  0.83103  0.86667  1.0000
  Cu  Cu5886    1.0  0.91429  0.66897  0.96667  1.0000
  Cu  Cu5887    1.0  0.91429  0.83103  0.88333  1.0000
  Cu  Cu5888    1.0  0.94286  0.66897  0.95000  1.0000
  Cu  Cu5889    1.0  0.90059  0.75115  0.93472  1.0000
  Cu  Cu5890    1.0  0.95656  0.74885  0.89862  1.0000
  Cu  Cu5891    1.0  0.95656  0.75115  0.98195  1.0000
  Cu  Cu5892    1.0  0.90059  0.74885  0.85138  1.0000
  Cu  Cu5893    1.0  0.97201  0.66782  0.93472  1.0000
  Cu  Cu5894    1.0  0.88513  0.83218  0.89862  1.0000
  Cu  Cu5895    1.0  0.88513  0.66782  0.98195  1.0000
  Cu  Cu5896    1.0  0.97201  0.83218  0.85138  1.0000
  Cu  Cu5897    1.0  0.85714  0.66667  0.83333  1.0000
  Cu  Cu5898    1.0  0.85714  0.66667  0.91667  1.0000
  Cu  Cu5899    1.0  0.92857  0.75000  0.83333  1.0000
  Cu  Cu5900    1.0  0.92857  0.75000  0.91667  1.0000
  Cu  Cu5901    1.0  0.85714  0.69445  0.87500  1.0000
  Cu  Cu5902    1.0  0.85714  0.80555  0.95833  1.0000
  Cu  Cu5903    1.0  0.92857  0.77778  0.87500  1.0000
  Cu  Cu5904    1.0  0.92857  0.72222  0.95833  1.0000
  Cu  Cu5905    1.0  0.87143  0.91437  0.03333  1.0000
  Cu  Cu5906    1.0  0.98571  0.91897  0.13333  1.0000
  Cu  Cu5907    1.0  0.98571  0.91437  0.05000  1.0000
  Cu  Cu5908    1.0  0.87143  0.91897  0.11667  1.0000
  Cu  Cu5909    1.0  0.94286  0.99770  0.03333  1.0000
  Cu  Cu5910    1.0  0.91429  0.83563  0.13333  1.0000
  Cu  Cu5911    1.0  0.91429  0.99770  0.05000  1.0000
  Cu  Cu5912    1.0  0.94286  0.83563  0.11667  1.0000
  Cu  Cu5913    1.0  0.90059  0.91782  0.10138  1.0000
  Cu  Cu5914    1.0  0.95656  0.91552  0.06528  1.0000
  Cu  Cu5915    1.0  0.95656  0.91782  0.14862  1.0000
  Cu  Cu5916    1.0  0.90059  0.91552  0.01805  1.0000
  Cu  Cu5917    1.0  0.97201  0.83448  0.10138  1.0000
  Cu  Cu5918    1.0  0.88513  0.99885  0.06528  1.0000
  Cu  Cu5919    1.0  0.88513  0.83448  0.14862  1.0000
  Cu  Cu5920    1.0  0.97201  0.99885  0.01805  1.0000
  Cu  Cu5921    1.0  0.85714  0.83333  0.00000  1.0000
  Cu  Cu5922    1.0  0.85714  0.83333  0.08333  1.0000
  Cu  Cu5923    1.0  0.92857  0.91667  0.00000  1.0000
  Cu  Cu5924    1.0  0.92857  0.91667  0.08333  1.0000
  Cu  Cu5925    1.0  0.85714  0.86112  0.04167  1.0000
  Cu  Cu5926    1.0  0.85714  0.97222  0.12500  1.0000
  Cu  Cu5927    1.0  0.92857  0.94445  0.04167  1.0000
  Cu  Cu5928    1.0  0.92857  0.88888  0.12500  1.0000
  Cu  Cu5929    1.0  0.87143  0.91437  0.20000  1.0000
  Cu  Cu5930    1.0  0.98571  0.91897  0.30000  1.0000
  Cu  Cu5931    1.0  0.98571  0.91437  0.21667  1.0000
  Cu  Cu5932    1.0  0.87143  0.91897  0.28333  1.0000
  Cu  Cu5933    1.0  0.94286  0.99770  0.20000  1.0000
  Cu  Cu5934    1.0  0.91429  0.83563  0.30000  1.0000
  Cu  Cu5935    1.0  0.91429  0.99770  0.21667  1.0000
  Cu  Cu5936    1.0  0.94286  0.83563  0.28333  1.0000
  Cu  Cu5937    1.0  0.90059  0.91782  0.26805  1.0000
  Cu  Cu5938    1.0  0.95656  0.91552  0.23195  1.0000
  Cu  Cu5939    1.0  0.95656  0.91782  0.31528  1.0000
  Cu  Cu5940    1.0  0.90059  0.91552  0.18472  1.0000
  Cu  Cu5941    1.0  0.97201  0.83448  0.26805  1.0000
  Cu  Cu5942    1.0  0.88513  0.99885  0.23195  1.0000
  Cu  Cu5943    1.0  0.88513  0.83448  0.31528  1.0000
  Cu  Cu5944    1.0  0.97201  0.99885  0.18472  1.0000
  Cu  Cu5945    1.0  0.85714  0.83333  0.16667  1.0000
  Cu  Cu5946    1.0  0.85714  0.83333  0.25000  1.0000
  Cu  Cu5947    1.0  0.92857  0.91667  0.16667  1.0000
  Cu  Cu5948    1.0  0.92857  0.91667  0.25000  1.0000
  Cu  Cu5949    1.0  0.85714  0.86112  0.20833  1.0000
  Cu  Cu5950    1.0  0.85714  0.97222  0.29167  1.0000
  Cu  Cu5951    1.0  0.92857  0.94445  0.20833  1.0000
  Cu  Cu5952    1.0  0.92857  0.88888  0.29167  1.0000
  Cu  Cu5953    1.0  0.87143  0.91437  0.36667  1.0000
  Cu  Cu5954    1.0  0.98571  0.91897  0.46667  1.0000
  Cu  Cu5955    1.0  0.98571  0.91437  0.38333  1.0000
  Cu  Cu5956    1.0  0.87143  0.91897  0.45000  1.0000
  Cu  Cu5957    1.0  0.94286  0.99770  0.36667  1.0000
  Cu  Cu5958    1.0  0.91429  0.83563  0.46667  1.0000
  Cu  Cu5959    1.0  0.91429  0.99770  0.38333  1.0000
  Cu  Cu5960    1.0  0.94286  0.83563  0.45000  1.0000
  Cu  Cu5961    1.0  0.90059  0.91782  0.43472  1.0000
  Cu  Cu5962    1.0  0.95656  0.91552  0.39862  1.0000
  Cu  Cu5963    1.0  0.95656  0.91782  0.48195  1.0000
  Cu  Cu5964    1.0  0.90059  0.91552  0.35138  1.0000
  Cu  Cu5965    1.0  0.97201  0.83448  0.43472  1.0000
  Cu  Cu5966    1.0  0.88513  0.99885  0.39862  1.0000
  Cu  Cu5967    1.0  0.88513  0.83448  0.48195  1.0000
  Cu  Cu5968    1.0  0.97201  0.99885  0.35138  1.0000
  Cu  Cu5969    1.0  0.85714  0.83333  0.33333  1.0000
  Cu  Cu5970    1.0  0.85714  0.83333  0.41667  1.0000
  Cu  Cu5971    1.0  0.92857  0.91667  0.33333  1.0000
  Cu  Cu5972    1.0  0.92857  0.91667  0.41667  1.0000
  Cu  Cu5973    1.0  0.85714  0.86112  0.37500  1.0000
  Cu  Cu5974    1.0  0.85714  0.97222  0.45833  1.0000
  Cu  Cu5975    1.0  0.92857  0.94445  0.37500  1.0000
  Cu  Cu5976    1.0  0.92857  0.88888  0.45833  1.0000
  Cu  Cu5977    1.0  0.87143  0.91437  0.53333  1.0000
  Cu  Cu5978    1.0  0.98571  0.91897  0.63333  1.0000
  Cu  Cu5979    1.0  0.98571  0.91437  0.55000  1.0000
  Cu  Cu5980    1.0  0.87143  0.91897  0.61667  1.0000
  Cu  Cu5981    1.0  0.94286  0.99770  0.53333  1.0000
  Cu  Cu5982    1.0  0.91429  0.83563  0.63333  1.0000
  Cu  Cu5983    1.0  0.91429  0.99770  0.55000  1.0000
  Cu  Cu5984    1.0  0.94286  0.83563  0.61667  1.0000
  Cu  Cu5985    1.0  0.90059  0.91782  0.60138  1.0000
  Cu  Cu5986    1.0  0.95656  0.91552  0.56528  1.0000
  Cu  Cu5987    1.0  0.95656  0.91782  0.64862  1.0000
  Cu  Cu5988    1.0  0.90059  0.91552  0.51805  1.0000
  Cu  Cu5989    1.0  0.97201  0.83448  0.60138  1.0000
  Cu  Cu5990    1.0  0.88513  0.99885  0.56528  1.0000
  Cu  Cu5991    1.0  0.88513  0.83448  0.64862  1.0000
  Cu  Cu5992    1.0  0.97201  0.99885  0.51805  1.0000
  Cu  Cu5993    1.0  0.85714  0.83333  0.50000  1.0000
  Cu  Cu5994    1.0  0.85714  0.83333  0.58333  1.0000
  Cu  Cu5995    1.0  0.92857  0.91667  0.50000  1.0000
  Cu  Cu5996    1.0  0.92857  0.91667  0.58333  1.0000
  Cu  Cu5997    1.0  0.85714  0.86112  0.54167  1.0000
  Cu  Cu5998    1.0  0.85714  0.97222  0.62500  1.0000
  Cu  Cu5999    1.0  0.92857  0.94445  0.54167  1.0000
  Cu  Cu6000    1.0  0.92857  0.88888  0.62500  1.0000
  Cu  Cu6001    1.0  0.87143  0.91437  0.70000  1.0000
  Cu  Cu6002    1.0  0.98571  0.91897  0.80000  1.0000
  Cu  Cu6003    1.0  0.98571  0.91437  0.71667  1.0000
  Cu  Cu6004    1.0  0.87143  0.91897  0.78333  1.0000
  Cu  Cu6005    1.0  0.94286  0.99770  0.70000  1.0000
  Cu  Cu6006    1.0  0.91429  0.83563  0.80000  1.0000
  Cu  Cu6007    1.0  0.91429  0.99770  0.71667  1.0000
  Cu  Cu6008    1.0  0.94286  0.83563  0.78333  1.0000
  Cu  Cu6009    1.0  0.90059  0.91782  0.76805  1.0000
  Cu  Cu6010    1.0  0.95656  0.91552  0.73195  1.0000
  Cu  Cu6011    1.0  0.95656  0.91782  0.81528  1.0000
  Cu  Cu6012    1.0  0.90059  0.91552  0.68472  1.0000
  Cu  Cu6013    1.0  0.97201  0.83448  0.76805  1.0000
  Cu  Cu6014    1.0  0.88513  0.99885  0.73195  1.0000
  Cu  Cu6015    1.0  0.88513  0.83448  0.81528  1.0000
  Cu  Cu6016    1.0  0.97201  0.99885  0.68472  1.0000
  Cu  Cu6017    1.0  0.85714  0.83333  0.66667  1.0000
  Cu  Cu6018    1.0  0.85714  0.83333  0.75000  1.0000
  Cu  Cu6019    1.0  0.92857  0.91667  0.66667  1.0000
  Cu  Cu6020    1.0  0.92857  0.91667  0.75000  1.0000
  Cu  Cu6021    1.0  0.85714  0.86112  0.70833  1.0000
  Cu  Cu6022    1.0  0.85714  0.97222  0.79167  1.0000
  Cu  Cu6023    1.0  0.92857  0.94445  0.70833  1.0000
  Cu  Cu6024    1.0  0.92857  0.88888  0.79167  1.0000
  Cu  Cu6025    1.0  0.87143  0.91437  0.86667  1.0000
  Cu  Cu6026    1.0  0.98571  0.91897  0.96667  1.0000
  Cu  Cu6027    1.0  0.98571  0.91437  0.88333  1.0000
  Cu  Cu6028    1.0  0.87143  0.91897  0.95000  1.0000
  Cu  Cu6029    1.0  0.94286  0.99770  0.86667  1.0000
  Cu  Cu6030    1.0  0.91429  0.83563  0.96667  1.0000
  Cu  Cu6031    1.0  0.91429  0.99770  0.88333  1.0000
  Cu  Cu6032    1.0  0.94286  0.83563  0.95000  1.0000
  Cu  Cu6033    1.0  0.90059  0.91782  0.93472  1.0000
  Cu  Cu6034    1.0  0.95656  0.91552  0.89862  1.0000
  Cu  Cu6035    1.0  0.95656  0.91782  0.98195  1.0000
  Cu  Cu6036    1.0  0.90059  0.91552  0.85138  1.0000
  Cu  Cu6037    1.0  0.97201  0.83448  0.93472  1.0000
  Cu  Cu6038    1.0  0.88513  0.99885  0.89862  1.0000
  Cu  Cu6039    1.0  0.88513  0.83448  0.98195  1.0000
  Cu  Cu6040    1.0  0.97201  0.99885  0.85138  1.0000
  Cu  Cu6041    1.0  0.85714  0.83333  0.83333  1.0000
  Cu  Cu6042    1.0  0.85714  0.83333  0.91667  1.0000
  Cu  Cu6043    1.0  0.92857  0.91667  0.83333  1.0000
  Cu  Cu6044    1.0  0.92857  0.91667  0.91667  1.0000
  Cu  Cu6045    1.0  0.85714  0.86112  0.87500  1.0000
  Cu  Cu6046    1.0  0.85714  0.97222  0.95833  1.0000
  Cu  Cu6047    1.0  0.92857  0.94445  0.87500  1.0000
  Cu  Cu6048    1.0  0.92857  0.88888  0.95833  1.0000
  In  In1       1.0  0.04120  0.05555  0.64263  1.0000
  In  In2       1.0  0.00000  0.13428  0.70833  1.0000
  In  In3       1.0  0.12739  0.22453  0.00557  1.0000
  In  In4       1.0  0.11263  0.30555  0.47597  1.0000
  In  In5       1.0  0.11263  0.30555  0.64263  1.0000
  In  In6       1.0  0.04120  0.22222  0.97597  1.0000
  In  In7       1.0  0.03023  0.30555  0.94070  1.0000
  In  In8       1.0  0.00000  0.36572  0.12500  1.0000
  In  In9       1.0  0.08690  0.35880  0.32777  1.0000
  In  In10      1.0  0.07143  0.38428  0.70833  1.0000
  In  In11      1.0  0.08690  0.64120  0.07777  1.0000
  In  In12      1.0  0.04120  0.61112  0.22597  1.0000
  In  In13      1.0  0.10166  0.55555  0.44070  1.0000
  In  In14      1.0  0.01547  0.55787  0.57777  1.0000
  In  In15      1.0  0.10166  0.55555  0.77403  1.0000
  In  In16      1.0  0.00000  0.80095  0.54167  1.0000
  In  In17      1.0  0.07143  0.71762  0.87500  1.0000
  In  In18      1.0  0.08690  0.97453  0.07777  1.0000
  In  In19      1.0  0.04120  0.94445  0.05930  1.0000
  In  In20      1.0  0.08690  0.85880  0.49443  1.0000
  In  In21      1.0  0.01547  0.89120  0.57777  1.0000
  In  In22      1.0  0.08690  0.85880  0.82777  1.0000
  In  In23      1.0  0.04120  0.88888  0.80930  1.0000
  In  In24      1.0  0.00000  0.86572  0.95833  1.0000
  In  In25      1.0  0.15833  0.05787  0.07777  1.0000
  In  In26      1.0  0.27024  0.05787  0.00557  1.0000
  In  In27      1.0  0.25549  0.13888  0.30930  1.0000
  In  In28      1.0  0.14286  0.13428  0.20833  1.0000
  In  In29      1.0  0.22976  0.14120  0.91110  1.0000
  In  In30      1.0  0.25549  0.30555  0.30930  1.0000
  In  In31      1.0  0.22976  0.19213  0.66110  1.0000
  In  In32      1.0  0.14286  0.19905  0.62500  1.0000
  In  In33      1.0  0.25549  0.30555  0.80930  1.0000
  In  In34      1.0  0.14286  0.19905  0.79167  1.0000
  In  In35      1.0  0.15833  0.27547  0.99443  1.0000
  In  In36      1.0  0.14286  0.30095  0.87500  1.0000
  In  In37      1.0  0.14286  0.36572  0.29167  1.0000
  In  In38      1.0  0.19881  0.35880  0.42223  1.0000
  In  In39      1.0  0.21429  0.44905  0.45833  1.0000
  In  In40      1.0  0.24451  0.44445  0.52403  1.0000
  In  In41      1.0  0.27024  0.55787  0.17223  1.0000
  In  In42      1.0  0.15833  0.60880  0.49443  1.0000
  In  In43      1.0  0.19881  0.52547  0.58890  1.0000
  In  In44      1.0  0.24451  0.55555  0.94070  1.0000
  In  In45      1.0  0.22976  0.69213  0.32777  1.0000
  In  In46      1.0  0.14286  0.69905  0.29167  1.0000
  In  In47      1.0  0.25549  0.69445  0.39263  1.0000
  In  In48      1.0  0.15833  0.72453  0.74443  1.0000
  In  In49      1.0  0.27024  0.72453  0.67223  1.0000
  In  In50      1.0  0.24451  0.77778  0.69070  1.0000
  In  In51      1.0  0.21429  0.88428  0.54167  1.0000
  In  In52      1.0  0.39834  0.13888  0.64263  1.0000
  In  In53      1.0  0.31594  0.02778  0.69070  1.0000
  In  In54      1.0  0.34167  0.30787  0.17223  1.0000
  In  In55      1.0  0.28571  0.30095  0.37500  1.0000
  In  In56      1.0  0.32691  0.38888  0.97597  1.0000
  In  In57      1.0  0.32691  0.55555  0.14263  1.0000
  In  In58      1.0  0.34167  0.64120  0.33890  1.0000
  In  In59      1.0  0.30119  0.55787  0.41110  1.0000
  In  In60      1.0  0.35714  0.55095  0.37500  1.0000
  In  In61      1.0  0.41310  0.60880  0.92223  1.0000
  In  In62      1.0  0.32691  0.77778  0.39263  1.0000
  In  In63      1.0  0.32691  0.77778  0.72597  1.0000
  In  In64      1.0  0.34167  0.80787  0.83890  1.0000
  In  In65      1.0  0.31594  0.69445  0.85737  1.0000
  In  In66      1.0  0.39834  0.80555  0.97597  1.0000
  In  In67      1.0  0.55596  0.05787  0.83890  1.0000
  In  In68      1.0  0.55596  0.27547  0.42223  1.0000
  In  In69      1.0  0.48453  0.35880  0.08890  1.0000
  In  In70      1.0  0.48453  0.35880  0.58890  1.0000
  In  In71      1.0  0.51547  0.35880  0.82777  1.0000
  In  In72      1.0  0.42857  0.63428  0.20833  1.0000
  In  In73      1.0  0.55596  0.77547  0.08890  1.0000
  In  In74      1.0  0.51547  0.69213  0.32777  1.0000
  In  In75      1.0  0.55596  0.77547  0.58890  1.0000
  In  In76      1.0  0.44404  0.72453  0.57777  1.0000
  In  In77      1.0  0.46977  0.77778  0.72597  1.0000
  In  In78      1.0  0.42857  0.86572  0.45833  1.0000
  In  In79      1.0  0.44404  0.89120  0.74443  1.0000
  In  In80      1.0  0.53023  0.88888  0.77403  1.0000
  In  In81      1.0  0.48453  0.85880  0.92223  1.0000
  In  In82      1.0  0.62739  0.02547  0.75557  1.0000
  In  In83      1.0  0.64286  0.05095  0.87500  1.0000
  In  In84      1.0  0.58690  0.27547  0.32777  1.0000
  In  In85      1.0  0.64286  0.28238  0.45833  1.0000
  In  In86      1.0  0.65833  0.19213  0.82777  1.0000
  In  In87      1.0  0.62739  0.19213  0.92223  1.0000
  In  In88      1.0  0.62739  0.47453  0.17223  1.0000
  In  In89      1.0  0.58690  0.39120  0.57777  1.0000
  In  In90      1.0  0.58690  0.44213  0.66110  1.0000
  In  In91      1.0  0.61263  0.44445  0.89263  1.0000
  In  In92      1.0  0.69881  0.60880  0.08890  1.0000
  In  In93      1.0  0.69881  0.55787  0.17223  1.0000
  In  In94      1.0  0.62739  0.64120  0.33890  1.0000
  In  In95      1.0  0.64286  0.78238  0.29167  1.0000
  In  In96      1.0  0.62739  0.97453  0.17223  1.0000
  In  In97      1.0  0.69881  0.94213  0.25557  1.0000
  In  In98      1.0  0.58690  0.89120  0.41110  1.0000
  In  In99      1.0  0.62739  0.97453  0.83890  1.0000
  In  In100     1.0  0.84167  0.05787  0.33890  1.0000
  In  In101     1.0  0.78571  0.11572  0.62500  1.0000
  In  In102     1.0  0.80119  0.19213  0.82777  1.0000
  In  In103     1.0  0.82691  0.30555  0.97597  1.0000
  In  In104     1.0  0.77024  0.35880  0.08890  1.0000
  In  In105     1.0  0.75549  0.44445  0.05930  1.0000
  In  In106     1.0  0.80119  0.47453  0.24443  1.0000
  In  In107     1.0  0.80119  0.47453  0.74443  1.0000
  In  In108     1.0  0.81594  0.44445  0.69070  1.0000
  In  In109     1.0  0.75549  0.55555  0.14263  1.0000
  In  In110     1.0  0.78571  0.55095  0.04167  1.0000
  In  In111     1.0  0.77024  0.64120  0.17223  1.0000
  In  In112     1.0  0.77024  0.64120  0.33890  1.0000
  In  In113     1.0  0.80119  0.64120  0.74443  1.0000
  In  In114     1.0  0.74451  0.80555  0.27403  1.0000
  In  In115     1.0  0.84167  0.94213  0.58890  1.0000
  In  In116     1.0  0.74451  0.86112  0.85737  1.0000
  In  In117     1.0  0.98453  0.05787  0.50557  1.0000
  In  In118     1.0  0.92857  0.11572  0.62500  1.0000
  In  In119     1.0  0.91310  0.02547  0.75557  1.0000
  In  In120     1.0  0.88737  0.30555  0.77403  1.0000
  In  In121     1.0  0.95880  0.44445  0.02403  1.0000
  In  In122     1.0  0.87261  0.39120  0.24443  1.0000
  In  In123     1.0  0.92857  0.38428  0.20833  1.0000
  In  In124     1.0  0.92857  0.38428  0.37500  1.0000
  In  In125     1.0  0.98453  0.39120  0.50557  1.0000
  In  In126     1.0  0.98453  0.60880  0.25557  1.0000
  In  In127     1.0  0.94404  0.52547  0.82777  1.0000
  In  In128     1.0  0.98453  0.60880  0.75557  1.0000
  In  In129     1.0  0.87261  0.55787  0.91110  1.0000
  In  In130     1.0  0.95880  0.72222  0.27403  1.0000
  In  In131     1.0  0.94404  0.69213  0.49443  1.0000
  In  In132     1.0  0.85714  0.69905  0.45833  1.0000
  In  In133     1.0  0.85714  0.80095  0.54167  1.0000
  In  In134     1.0  0.87261  0.72453  0.74443  1.0000
  In  In135     1.0  0.85714  0.80095  0.70833  1.0000
  In  In136     1.0  0.91310  0.80787  0.83890  1.0000
  In  In137     1.0  0.92857  0.88428  0.37500  1.0000
  In  In138     1.0  0.95880  0.88888  0.60737  1.0000
  In  In139     1.0  0.95880  0.94445  0.52403  1.0000
  In  In140     1.0  0.88737  0.97222  0.60737  1.0000
  Sn  Sn1       1.0  0.05596  0.02547  0.08890  1.0000
  Sn  Sn2       1.0  0.08690  0.14120  0.07777  1.0000
  Sn  Sn3       1.0  0.08690  0.02547  0.16110  1.0000
  Sn  Sn4       1.0  0.05596  0.14120  0.00557  1.0000
  Sn  Sn5       1.0  0.12739  0.10880  0.08890  1.0000
  Sn  Sn6       1.0  0.01547  0.05787  0.07777  1.0000
  Sn  Sn7       1.0  0.01547  0.10880  0.16110  1.0000
  Sn  Sn8       1.0  0.12739  0.05787  0.00557  1.0000
  Sn  Sn9       1.0  0.04120  0.11112  0.05930  1.0000
  Sn  Sn10      1.0  0.10166  0.05555  0.10737  1.0000
  Sn  Sn11      1.0  0.10166  0.11112  0.02403  1.0000
  Sn  Sn12      1.0  0.04120  0.05555  0.14263  1.0000
  Sn  Sn13      1.0  0.11263  0.02778  0.05930  1.0000
  Sn  Sn14      1.0  0.03023  0.13888  0.10737  1.0000
  Sn  Sn15      1.0  0.03023  0.02778  0.02403  1.0000
  Sn  Sn16      1.0  0.11263  0.13888  0.14263  1.0000
  Sn  Sn17      1.0  0.00000  0.13428  0.04167  1.0000
  Sn  Sn18      1.0  0.00000  0.03238  0.12500  1.0000
  Sn  Sn19      1.0  0.07143  0.05095  0.04167  1.0000
  Sn  Sn20      1.0  0.07143  0.11572  0.12500  1.0000
  Sn  Sn21      1.0  0.05596  0.02547  0.25557  1.0000
  Sn  Sn22      1.0  0.08690  0.14120  0.24443  1.0000
  Sn  Sn23      1.0  0.08690  0.02547  0.32777  1.0000
  Sn  Sn24      1.0  0.05596  0.14120  0.17223  1.0000
  Sn  Sn25      1.0  0.12739  0.10880  0.25557  1.0000
  Sn  Sn26      1.0  0.01547  0.05787  0.24443  1.0000
  Sn  Sn27      1.0  0.01547  0.10880  0.32777  1.0000
  Sn  Sn28      1.0  0.12739  0.05787  0.17223  1.0000
  Sn  Sn29      1.0  0.04120  0.11112  0.22597  1.0000
  Sn  Sn30      1.0  0.10166  0.05555  0.27403  1.0000
  Sn  Sn31      1.0  0.10166  0.11112  0.19070  1.0000
  Sn  Sn32      1.0  0.04120  0.05555  0.30930  1.0000
  Sn  Sn33      1.0  0.11263  0.02778  0.22597  1.0000
  Sn  Sn34      1.0  0.03023  0.13888  0.27403  1.0000
  Sn  Sn35      1.0  0.03023  0.02778  0.19070  1.0000
  Sn  Sn36      1.0  0.11263  0.13888  0.30930  1.0000
  Sn  Sn37      1.0  0.00000  0.13428  0.20833  1.0000
  Sn  Sn38      1.0  0.00000  0.03238  0.29167  1.0000
  Sn  Sn39      1.0  0.07143  0.05095  0.20833  1.0000
  Sn  Sn40      1.0  0.07143  0.11572  0.29167  1.0000
  Sn  Sn41      1.0  0.05596  0.02547  0.42223  1.0000
  Sn  Sn42      1.0  0.08690  0.14120  0.41110  1.0000
  Sn  Sn43      1.0  0.08690  0.02547  0.49443  1.0000
  Sn  Sn44      1.0  0.05596  0.14120  0.33890  1.0000
  Sn  Sn45      1.0  0.12739  0.10880  0.42223  1.0000
  Sn  Sn46      1.0  0.01547  0.05787  0.41110  1.0000
  Sn  Sn47      1.0  0.01547  0.10880  0.49443  1.0000
  Sn  Sn48      1.0  0.12739  0.05787  0.33890  1.0000
  Sn  Sn49      1.0  0.04120  0.11112  0.39263  1.0000
  Sn  Sn50      1.0  0.10166  0.05555  0.44070  1.0000
  Sn  Sn51      1.0  0.10166  0.11112  0.35737  1.0000
  Sn  Sn52      1.0  0.04120  0.05555  0.47597  1.0000
  Sn  Sn53      1.0  0.11263  0.02778  0.39263  1.0000
  Sn  Sn54      1.0  0.03023  0.13888  0.44070  1.0000
  Sn  Sn55      1.0  0.03023  0.02778  0.35737  1.0000
  Sn  Sn56      1.0  0.11263  0.13888  0.47597  1.0000
  Sn  Sn57      1.0  0.00000  0.13428  0.37500  1.0000
  Sn  Sn58      1.0  0.00000  0.03238  0.45833  1.0000
  Sn  Sn59      1.0  0.07143  0.05095  0.37500  1.0000
  Sn  Sn60      1.0  0.07143  0.11572  0.45833  1.0000
  Sn  Sn61      1.0  0.05596  0.02547  0.58890  1.0000
  Sn  Sn62      1.0  0.08690  0.14120  0.57777  1.0000
  Sn  Sn63      1.0  0.08690  0.02547  0.66110  1.0000
  Sn  Sn64      1.0  0.05596  0.14120  0.50557  1.0000
  Sn  Sn65      1.0  0.12739  0.10880  0.58890  1.0000
  Sn  Sn66      1.0  0.01547  0.05787  0.57777  1.0000
  Sn  Sn67      1.0  0.01547  0.10880  0.66110  1.0000
  Sn  Sn68      1.0  0.12739  0.05787  0.50557  1.0000
  Sn  Sn69      1.0  0.04120  0.11112  0.55930  1.0000
  Sn  Sn70      1.0  0.10166  0.05555  0.60737  1.0000
  Sn  Sn71      1.0  0.10166  0.11112  0.52403  1.0000
  Sn  Sn72      1.0  0.11263  0.02778  0.55930  1.0000
  Sn  Sn73      1.0  0.03023  0.13888  0.60737  1.0000
  Sn  Sn74      1.0  0.03023  0.02778  0.52403  1.0000
  Sn  Sn75      1.0  0.11263  0.13888  0.64263  1.0000
  Sn  Sn76      1.0  0.00000  0.13428  0.54167  1.0000
  Sn  Sn77      1.0  0.00000  0.03238  0.62500  1.0000
  Sn  Sn78      1.0  0.07143  0.05095  0.54167  1.0000
  Sn  Sn79      1.0  0.07143  0.11572  0.62500  1.0000
  Sn  Sn80      1.0  0.05596  0.02547  0.75557  1.0000
  Sn  Sn81      1.0  0.08690  0.14120  0.74443  1.0000
  Sn  Sn82      1.0  0.08690  0.02547  0.82777  1.0000
  Sn  Sn83      1.0  0.05596  0.14120  0.67223  1.0000
  Sn  Sn84      1.0  0.12739  0.10880  0.75557  1.0000
  Sn  Sn85      1.0  0.01547  0.05787  0.74443  1.0000
  Sn  Sn86      1.0  0.01547  0.10880  0.82777  1.0000
  Sn  Sn87      1.0  0.12739  0.05787  0.67223  1.0000
  Sn  Sn88      1.0  0.04120  0.11112  0.72597  1.0000
  Sn  Sn89      1.0  0.10166  0.05555  0.77403  1.0000
  Sn  Sn90      1.0  0.10166  0.11112  0.69070  1.0000
  Sn  Sn91      1.0  0.04120  0.05555  0.80930  1.0000
  Sn  Sn92      1.0  0.11263  0.02778  0.72597  1.0000
  Sn  Sn93      1.0  0.03023  0.13888  0.77403  1.0000
  Sn  Sn94      1.0  0.03023  0.02778  0.69070  1.0000
  Sn  Sn95      1.0  0.11263  0.13888  0.80930  1.0000
  Sn  Sn96      1.0  0.00000  0.03238  0.79167  1.0000
  Sn  Sn97      1.0  0.07143  0.05095  0.70833  1.0000
  Sn  Sn98      1.0  0.07143  0.11572  0.79167  1.0000
  Sn  Sn99      1.0  0.05596  0.02547  0.92223  1.0000
  Sn  Sn100     1.0  0.08690  0.14120  0.91110  1.0000
  Sn  Sn101     1.0  0.08690  0.02547  0.99443  1.0000
  Sn  Sn102     1.0  0.05596  0.14120  0.83890  1.0000
  Sn  Sn103     1.0  0.12739  0.10880  0.92223  1.0000
  Sn  Sn104     1.0  0.01547  0.05787  0.91110  1.0000
  Sn  Sn105     1.0  0.01547  0.10880  0.99443  1.0000
  Sn  Sn106     1.0  0.12739  0.05787  0.83890  1.0000
  Sn  Sn107     1.0  0.04120  0.11112  0.89263  1.0000
  Sn  Sn108     1.0  0.10166  0.05555  0.94070  1.0000
  Sn  Sn109     1.0  0.10166  0.11112  0.85737  1.0000
  Sn  Sn110     1.0  0.04120  0.05555  0.97597  1.0000
  Sn  Sn111     1.0  0.11263  0.02778  0.89263  1.0000
  Sn  Sn112     1.0  0.03023  0.13888  0.94070  1.0000
  Sn  Sn113     1.0  0.03023  0.02778  0.85737  1.0000
  Sn  Sn114     1.0  0.11263  0.13888  0.97597  1.0000
  Sn  Sn115     1.0  0.00000  0.13428  0.87500  1.0000
  Sn  Sn116     1.0  0.00000  0.03238  0.95833  1.0000
  Sn  Sn117     1.0  0.07143  0.05095  0.87500  1.0000
  Sn  Sn118     1.0  0.07143  0.11572  0.95833  1.0000
  Sn  Sn119     1.0  0.05596  0.19213  0.08890  1.0000
  Sn  Sn120     1.0  0.08690  0.30787  0.07777  1.0000
  Sn  Sn121     1.0  0.08690  0.19213  0.16110  1.0000
  Sn  Sn122     1.0  0.05596  0.30787  0.00557  1.0000
  Sn  Sn123     1.0  0.12739  0.27547  0.08890  1.0000
  Sn  Sn124     1.0  0.01547  0.22453  0.07777  1.0000
  Sn  Sn125     1.0  0.01547  0.27547  0.16110  1.0000
  Sn  Sn126     1.0  0.04120  0.27778  0.05930  1.0000
  Sn  Sn127     1.0  0.10166  0.22222  0.10737  1.0000
  Sn  Sn128     1.0  0.10166  0.27778  0.02403  1.0000
  Sn  Sn129     1.0  0.04120  0.22222  0.14263  1.0000
  Sn  Sn130     1.0  0.11263  0.19445  0.05930  1.0000
  Sn  Sn131     1.0  0.03023  0.30555  0.10737  1.0000
  Sn  Sn132     1.0  0.03023  0.19445  0.02403  1.0000
  Sn  Sn133     1.0  0.11263  0.30555  0.14263  1.0000
  Sn  Sn134     1.0  0.00000  0.30095  0.04167  1.0000
  Sn  Sn135     1.0  0.00000  0.19905  0.12500  1.0000
  Sn  Sn136     1.0  0.07143  0.21762  0.04167  1.0000
  Sn  Sn137     1.0  0.07143  0.28238  0.12500  1.0000
  Sn  Sn138     1.0  0.05596  0.19213  0.25557  1.0000
  Sn  Sn139     1.0  0.08690  0.30787  0.24443  1.0000
  Sn  Sn140     1.0  0.08690  0.19213  0.32777  1.0000
  Sn  Sn141     1.0  0.05596  0.30787  0.17223  1.0000
  Sn  Sn142     1.0  0.12739  0.27547  0.25557  1.0000
  Sn  Sn143     1.0  0.01547  0.22453  0.24443  1.0000
  Sn  Sn144     1.0  0.01547  0.27547  0.32777  1.0000
  Sn  Sn145     1.0  0.12739  0.22453  0.17223  1.0000
  Sn  Sn146     1.0  0.04120  0.27778  0.22597  1.0000
  Sn  Sn147     1.0  0.10166  0.22222  0.27403  1.0000
  Sn  Sn148     1.0  0.10166  0.27778  0.19070  1.0000
  Sn  Sn149     1.0  0.04120  0.22222  0.30930  1.0000
  Sn  Sn150     1.0  0.11263  0.19445  0.22597  1.0000
  Sn  Sn151     1.0  0.03023  0.30555  0.27403  1.0000
  Sn  Sn152     1.0  0.03023  0.19445  0.19070  1.0000
  Sn  Sn153     1.0  0.11263  0.30555  0.30930  1.0000
  Sn  Sn154     1.0  0.00000  0.30095  0.20833  1.0000
  Sn  Sn155     1.0  0.00000  0.19905  0.29167  1.0000
  Sn  Sn156     1.0  0.07143  0.21762  0.20833  1.0000
  Sn  Sn157     1.0  0.07143  0.28238  0.29167  1.0000
  Sn  Sn158     1.0  0.05596  0.19213  0.42223  1.0000
  Sn  Sn159     1.0  0.08690  0.30787  0.41110  1.0000
  Sn  Sn160     1.0  0.08690  0.19213  0.49443  1.0000
  Sn  Sn161     1.0  0.05596  0.30787  0.33890  1.0000
  Sn  Sn162     1.0  0.12739  0.27547  0.42223  1.0000
  Sn  Sn163     1.0  0.01547  0.22453  0.41110  1.0000
  Sn  Sn164     1.0  0.01547  0.27547  0.49443  1.0000
  Sn  Sn165     1.0  0.12739  0.22453  0.33890  1.0000
  Sn  Sn166     1.0  0.04120  0.27778  0.39263  1.0000
  Sn  Sn167     1.0  0.10166  0.22222  0.44070  1.0000
  Sn  Sn168     1.0  0.10166  0.27778  0.35737  1.0000
  Sn  Sn169     1.0  0.04120  0.22222  0.47597  1.0000
  Sn  Sn170     1.0  0.11263  0.19445  0.39263  1.0000
  Sn  Sn171     1.0  0.03023  0.30555  0.44070  1.0000
  Sn  Sn172     1.0  0.03023  0.19445  0.35737  1.0000
  Sn  Sn173     1.0  0.00000  0.30095  0.37500  1.0000
  Sn  Sn174     1.0  0.00000  0.19905  0.45833  1.0000
  Sn  Sn175     1.0  0.07143  0.21762  0.37500  1.0000
  Sn  Sn176     1.0  0.07143  0.28238  0.45833  1.0000
  Sn  Sn177     1.0  0.05596  0.19213  0.58890  1.0000
  Sn  Sn178     1.0  0.08690  0.30787  0.57777  1.0000
  Sn  Sn179     1.0  0.08690  0.19213  0.66110  1.0000
  Sn  Sn180     1.0  0.05596  0.30787  0.50557  1.0000
  Sn  Sn181     1.0  0.12739  0.27547  0.58890  1.0000
  Sn  Sn182     1.0  0.01547  0.22453  0.57777  1.0000
  Sn  Sn183     1.0  0.01547  0.27547  0.66110  1.0000
  Sn  Sn184     1.0  0.12739  0.22453  0.50557  1.0000
  Sn  Sn185     1.0  0.04120  0.27778  0.55930  1.0000
  Sn  Sn186     1.0  0.10166  0.22222  0.60737  1.0000
  Sn  Sn187     1.0  0.10166  0.27778  0.52403  1.0000
  Sn  Sn188     1.0  0.04120  0.22222  0.64263  1.0000
  Sn  Sn189     1.0  0.11263  0.19445  0.55930  1.0000
  Sn  Sn190     1.0  0.03023  0.30555  0.60737  1.0000
  Sn  Sn191     1.0  0.03023  0.19445  0.52403  1.0000
  Sn  Sn192     1.0  0.00000  0.30095  0.54167  1.0000
  Sn  Sn193     1.0  0.00000  0.19905  0.62500  1.0000
  Sn  Sn194     1.0  0.07143  0.21762  0.54167  1.0000
  Sn  Sn195     1.0  0.07143  0.28238  0.62500  1.0000
  Sn  Sn196     1.0  0.05596  0.19213  0.75557  1.0000
  Sn  Sn197     1.0  0.08690  0.30787  0.74443  1.0000
  Sn  Sn198     1.0  0.08690  0.19213  0.82777  1.0000
  Sn  Sn199     1.0  0.05596  0.30787  0.67223  1.0000
  Sn  Sn200     1.0  0.12739  0.27547  0.75557  1.0000
  Sn  Sn201     1.0  0.01547  0.22453  0.74443  1.0000
  Sn  Sn202     1.0  0.01547  0.27547  0.82777  1.0000
  Sn  Sn203     1.0  0.12739  0.22453  0.67223  1.0000
  Sn  Sn204     1.0  0.04120  0.27778  0.72597  1.0000
  Sn  Sn205     1.0  0.10166  0.22222  0.77403  1.0000
  Sn  Sn206     1.0  0.10166  0.27778  0.69070  1.0000
  Sn  Sn207     1.0  0.04120  0.22222  0.80930  1.0000
  Sn  Sn208     1.0  0.11263  0.19445  0.72597  1.0000
  Sn  Sn209     1.0  0.03023  0.30555  0.77403  1.0000
  Sn  Sn210     1.0  0.03023  0.19445  0.69070  1.0000
  Sn  Sn211     1.0  0.11263  0.30555  0.80930  1.0000
  Sn  Sn212     1.0  0.00000  0.30095  0.70833  1.0000
  Sn  Sn213     1.0  0.00000  0.19905  0.79167  1.0000
  Sn  Sn214     1.0  0.07143  0.21762  0.70833  1.0000
  Sn  Sn215     1.0  0.07143  0.28238  0.79167  1.0000
  Sn  Sn216     1.0  0.05596  0.19213  0.92223  1.0000
  Sn  Sn217     1.0  0.08690  0.30787  0.91110  1.0000
  Sn  Sn218     1.0  0.08690  0.19213  0.99443  1.0000
  Sn  Sn219     1.0  0.05596  0.30787  0.83890  1.0000
  Sn  Sn220     1.0  0.12739  0.27547  0.92223  1.0000
  Sn  Sn221     1.0  0.01547  0.22453  0.91110  1.0000
  Sn  Sn222     1.0  0.01547  0.27547  0.99443  1.0000
  Sn  Sn223     1.0  0.12739  0.22453  0.83890  1.0000
  Sn  Sn224     1.0  0.04120  0.27778  0.89263  1.0000
  Sn  Sn225     1.0  0.10166  0.22222  0.94070  1.0000
  Sn  Sn226     1.0  0.10166  0.27778  0.85737  1.0000
  Sn  Sn227     1.0  0.11263  0.19445  0.89263  1.0000
  Sn  Sn228     1.0  0.03023  0.19445  0.85737  1.0000
  Sn  Sn229     1.0  0.11263  0.30555  0.97597  1.0000
  Sn  Sn230     1.0  0.00000  0.30095  0.87500  1.0000
  Sn  Sn231     1.0  0.00000  0.19905  0.95833  1.0000
  Sn  Sn232     1.0  0.07143  0.21762  0.87500  1.0000
  Sn  Sn233     1.0  0.07143  0.28238  0.95833  1.0000
  Sn  Sn234     1.0  0.05596  0.35880  0.08890  1.0000
  Sn  Sn235     1.0  0.08690  0.47453  0.07777  1.0000
  Sn  Sn236     1.0  0.08690  0.35880  0.16110  1.0000
  Sn  Sn237     1.0  0.05596  0.47453  0.00557  1.0000
  Sn  Sn238     1.0  0.12739  0.44213  0.08890  1.0000
  Sn  Sn239     1.0  0.01547  0.39120  0.07777  1.0000
  Sn  Sn240     1.0  0.01547  0.44213  0.16110  1.0000
  Sn  Sn241     1.0  0.12739  0.39120  0.00557  1.0000
  Sn  Sn242     1.0  0.04120  0.44445  0.05930  1.0000
  Sn  Sn243     1.0  0.10166  0.38888  0.10737  1.0000
  Sn  Sn244     1.0  0.10166  0.44445  0.02403  1.0000
  Sn  Sn245     1.0  0.04120  0.38888  0.14263  1.0000
  Sn  Sn246     1.0  0.11263  0.36112  0.05930  1.0000
  Sn  Sn247     1.0  0.03023  0.47222  0.10737  1.0000
  Sn  Sn248     1.0  0.03023  0.36112  0.02403  1.0000
  Sn  Sn249     1.0  0.11263  0.47222  0.14263  1.0000
  Sn  Sn250     1.0  0.00000  0.46762  0.04167  1.0000
  Sn  Sn251     1.0  0.07143  0.38428  0.04167  1.0000
  Sn  Sn252     1.0  0.07143  0.44905  0.12500  1.0000
  Sn  Sn253     1.0  0.05596  0.35880  0.25557  1.0000
  Sn  Sn254     1.0  0.08690  0.47453  0.24443  1.0000
  Sn  Sn255     1.0  0.05596  0.47453  0.17223  1.0000
  Sn  Sn256     1.0  0.12739  0.44213  0.25557  1.0000
  Sn  Sn257     1.0  0.01547  0.39120  0.24443  1.0000
  Sn  Sn258     1.0  0.01547  0.44213  0.32777  1.0000
  Sn  Sn259     1.0  0.12739  0.39120  0.17223  1.0000
  Sn  Sn260     1.0  0.04120  0.44445  0.22597  1.0000
  Sn  Sn261     1.0  0.10166  0.38888  0.27403  1.0000
  Sn  Sn262     1.0  0.10166  0.44445  0.19070  1.0000
  Sn  Sn263     1.0  0.04120  0.38888  0.30930  1.0000
  Sn  Sn264     1.0  0.11263  0.36112  0.22597  1.0000
  Sn  Sn265     1.0  0.03023  0.47222  0.27403  1.0000
  Sn  Sn266     1.0  0.03023  0.36112  0.19070  1.0000
  Sn  Sn267     1.0  0.11263  0.47222  0.30930  1.0000
  Sn  Sn268     1.0  0.00000  0.46762  0.20833  1.0000
  Sn  Sn269     1.0  0.00000  0.36572  0.29167  1.0000
  Sn  Sn270     1.0  0.07143  0.38428  0.20833  1.0000
  Sn  Sn271     1.0  0.07143  0.44905  0.29167  1.0000
  Sn  Sn272     1.0  0.05596  0.35880  0.42223  1.0000
  Sn  Sn273     1.0  0.08690  0.47453  0.41110  1.0000
  Sn  Sn274     1.0  0.08690  0.35880  0.49443  1.0000
  Sn  Sn275     1.0  0.05596  0.47453  0.33890  1.0000
  Sn  Sn276     1.0  0.12739  0.44213  0.42223  1.0000
  Sn  Sn277     1.0  0.01547  0.39120  0.41110  1.0000
  Sn  Sn278     1.0  0.01547  0.44213  0.49443  1.0000
  Sn  Sn279     1.0  0.12739  0.39120  0.33890  1.0000
  Sn  Sn280     1.0  0.04120  0.44445  0.39263  1.0000
  Sn  Sn281     1.0  0.10166  0.38888  0.44070  1.0000
  Sn  Sn282     1.0  0.10166  0.44445  0.35737  1.0000
  Sn  Sn283     1.0  0.04120  0.38888  0.47597  1.0000
  Sn  Sn284     1.0  0.11263  0.36112  0.39263  1.0000
  Sn  Sn285     1.0  0.03023  0.47222  0.44070  1.0000
  Sn  Sn286     1.0  0.03023  0.36112  0.35737  1.0000
  Sn  Sn287     1.0  0.11263  0.47222  0.47597  1.0000
  Sn  Sn288     1.0  0.00000  0.46762  0.37500  1.0000
  Sn  Sn289     1.0  0.00000  0.36572  0.45833  1.0000
  Sn  Sn290     1.0  0.07143  0.38428  0.37500  1.0000
  Sn  Sn291     1.0  0.07143  0.44905  0.45833  1.0000
  Sn  Sn292     1.0  0.05596  0.35880  0.58890  1.0000
  Sn  Sn293     1.0  0.08690  0.47453  0.57777  1.0000
  Sn  Sn294     1.0  0.08690  0.35880  0.66110  1.0000
  Sn  Sn295     1.0  0.05596  0.47453  0.50557  1.0000
  Sn  Sn296     1.0  0.12739  0.44213  0.58890  1.0000
  Sn  Sn297     1.0  0.01547  0.39120  0.57777  1.0000
  Sn  Sn298     1.0  0.01547  0.44213  0.66110  1.0000
  Sn  Sn299     1.0  0.12739  0.39120  0.50557  1.0000
  Sn  Sn300     1.0  0.04120  0.44445  0.55930  1.0000
  Sn  Sn301     1.0  0.10166  0.38888  0.60737  1.0000
  Sn  Sn302     1.0  0.10166  0.44445  0.52403  1.0000
  Sn  Sn303     1.0  0.04120  0.38888  0.64263  1.0000
  Sn  Sn304     1.0  0.11263  0.36112  0.55930  1.0000
  Sn  Sn305     1.0  0.03023  0.47222  0.60737  1.0000
  Sn  Sn306     1.0  0.03023  0.36112  0.52403  1.0000
  Sn  Sn307     1.0  0.11263  0.47222  0.64263  1.0000
  Sn  Sn308     1.0  0.00000  0.46762  0.54167  1.0000
  Sn  Sn309     1.0  0.00000  0.36572  0.62500  1.0000
  Sn  Sn310     1.0  0.07143  0.38428  0.54167  1.0000
  Sn  Sn311     1.0  0.07143  0.44905  0.62500  1.0000
  Sn  Sn312     1.0  0.05596  0.35880  0.75557  1.0000
  Sn  Sn313     1.0  0.08690  0.47453  0.74443  1.0000
  Sn  Sn314     1.0  0.08690  0.35880  0.82777  1.0000
  Sn  Sn315     1.0  0.05596  0.47453  0.67223  1.0000
  Sn  Sn316     1.0  0.12739  0.44213  0.75557  1.0000
  Sn  Sn317     1.0  0.01547  0.39120  0.74443  1.0000
  Sn  Sn318     1.0  0.01547  0.44213  0.82777  1.0000
  Sn  Sn319     1.0  0.12739  0.39120  0.67223  1.0000
  Sn  Sn320     1.0  0.04120  0.44445  0.72597  1.0000
  Sn  Sn321     1.0  0.10166  0.38888  0.77403  1.0000
  Sn  Sn322     1.0  0.10166  0.44445  0.69070  1.0000
  Sn  Sn323     1.0  0.04120  0.38888  0.80930  1.0000
  Sn  Sn324     1.0  0.11263  0.36112  0.72597  1.0000
  Sn  Sn325     1.0  0.03023  0.47222  0.77403  1.0000
  Sn  Sn326     1.0  0.03023  0.36112  0.69070  1.0000
  Sn  Sn327     1.0  0.11263  0.47222  0.80930  1.0000
  Sn  Sn328     1.0  0.00000  0.46762  0.70833  1.0000
  Sn  Sn329     1.0  0.00000  0.36572  0.79167  1.0000
  Sn  Sn330     1.0  0.07143  0.44905  0.79167  1.0000
  Sn  Sn331     1.0  0.05596  0.35880  0.92223  1.0000
  Sn  Sn332     1.0  0.08690  0.47453  0.91110  1.0000
  Sn  Sn333     1.0  0.08690  0.35880  0.99443  1.0000
  Sn  Sn334     1.0  0.05596  0.47453  0.83890  1.0000
  Sn  Sn335     1.0  0.12739  0.44213  0.92223  1.0000
  Sn  Sn336     1.0  0.01547  0.39120  0.91110  1.0000
  Sn  Sn337     1.0  0.01547  0.44213  0.99443  1.0000
  Sn  Sn338     1.0  0.12739  0.39120  0.83890  1.0000
  Sn  Sn339     1.0  0.04120  0.44445  0.89263  1.0000
  Sn  Sn340     1.0  0.10166  0.38888  0.94070  1.0000
  Sn  Sn341     1.0  0.10166  0.44445  0.85737  1.0000
  Sn  Sn342     1.0  0.04120  0.38888  0.97597  1.0000
  Sn  Sn343     1.0  0.11263  0.36112  0.89263  1.0000
  Sn  Sn344     1.0  0.03023  0.47222  0.94070  1.0000
  Sn  Sn345     1.0  0.03023  0.36112  0.85737  1.0000
  Sn  Sn346     1.0  0.11263  0.47222  0.97597  1.0000
  Sn  Sn347     1.0  0.00000  0.46762  0.87500  1.0000
  Sn  Sn348     1.0  0.00000  0.36572  0.95833  1.0000
  Sn  Sn349     1.0  0.07143  0.38428  0.87500  1.0000
  Sn  Sn350     1.0  0.07143  0.44905  0.95833  1.0000
  Sn  Sn351     1.0  0.05596  0.52547  0.08890  1.0000
  Sn  Sn352     1.0  0.08690  0.52547  0.16110  1.0000
  Sn  Sn353     1.0  0.05596  0.64120  0.00557  1.0000
  Sn  Sn354     1.0  0.12739  0.60880  0.08890  1.0000
  Sn  Sn355     1.0  0.01547  0.55787  0.07777  1.0000
  Sn  Sn356     1.0  0.01547  0.60880  0.16110  1.0000
  Sn  Sn357     1.0  0.12739  0.55787  0.00557  1.0000
  Sn  Sn358     1.0  0.04120  0.61112  0.05930  1.0000
  Sn  Sn359     1.0  0.10166  0.55555  0.10737  1.0000
  Sn  Sn360     1.0  0.10166  0.61112  0.02403  1.0000
  Sn  Sn361     1.0  0.04120  0.55555  0.14263  1.0000
  Sn  Sn362     1.0  0.11263  0.52778  0.05930  1.0000
  Sn  Sn363     1.0  0.03023  0.63888  0.10737  1.0000
  Sn  Sn364     1.0  0.03023  0.52778  0.02403  1.0000
  Sn  Sn365     1.0  0.11263  0.63888  0.14263  1.0000
  Sn  Sn366     1.0  0.00000  0.63428  0.04167  1.0000
  Sn  Sn367     1.0  0.00000  0.53238  0.12500  1.0000
  Sn  Sn368     1.0  0.07143  0.55095  0.04167  1.0000
  Sn  Sn369     1.0  0.07143  0.61572  0.12500  1.0000
  Sn  Sn370     1.0  0.05596  0.52547  0.25557  1.0000
  Sn  Sn371     1.0  0.08690  0.64120  0.24443  1.0000
  Sn  Sn372     1.0  0.08690  0.52547  0.32777  1.0000
  Sn  Sn373     1.0  0.05596  0.64120  0.17223  1.0000
  Sn  Sn374     1.0  0.12739  0.60880  0.25557  1.0000
  Sn  Sn375     1.0  0.01547  0.55787  0.24443  1.0000
  Sn  Sn376     1.0  0.01547  0.60880  0.32777  1.0000
  Sn  Sn377     1.0  0.12739  0.55787  0.17223  1.0000
  Sn  Sn378     1.0  0.10166  0.55555  0.27403  1.0000
  Sn  Sn379     1.0  0.10166  0.61112  0.19070  1.0000
  Sn  Sn380     1.0  0.04120  0.55555  0.30930  1.0000
  Sn  Sn381     1.0  0.11263  0.52778  0.22597  1.0000
  Sn  Sn382     1.0  0.03023  0.63888  0.27403  1.0000
  Sn  Sn383     1.0  0.03023  0.52778  0.19070  1.0000
  Sn  Sn384     1.0  0.11263  0.63888  0.30930  1.0000
  Sn  Sn385     1.0  0.00000  0.63428  0.20833  1.0000
  Sn  Sn386     1.0  0.00000  0.53238  0.29167  1.0000
  Sn  Sn387     1.0  0.07143  0.55095  0.20833  1.0000
  Sn  Sn388     1.0  0.07143  0.61572  0.29167  1.0000
  Sn  Sn389     1.0  0.05596  0.52547  0.42223  1.0000
  Sn  Sn390     1.0  0.08690  0.64120  0.41110  1.0000
  Sn  Sn391     1.0  0.08690  0.52547  0.49443  1.0000
  Sn  Sn392     1.0  0.05596  0.64120  0.33890  1.0000
  Sn  Sn393     1.0  0.12739  0.60880  0.42223  1.0000
  Sn  Sn394     1.0  0.01547  0.55787  0.41110  1.0000
  Sn  Sn395     1.0  0.01547  0.60880  0.49443  1.0000
  Sn  Sn396     1.0  0.12739  0.55787  0.33890  1.0000
  Sn  Sn397     1.0  0.04120  0.61112  0.39263  1.0000
  Sn  Sn398     1.0  0.10166  0.61112  0.35737  1.0000
  Sn  Sn399     1.0  0.04120  0.55555  0.47597  1.0000
  Sn  Sn400     1.0  0.11263  0.52778  0.39263  1.0000
  Sn  Sn401     1.0  0.03023  0.63888  0.44070  1.0000
  Sn  Sn402     1.0  0.03023  0.52778  0.35737  1.0000
  Sn  Sn403     1.0  0.11263  0.63888  0.47597  1.0000
  Sn  Sn404     1.0  0.00000  0.63428  0.37500  1.0000
  Sn  Sn405     1.0  0.00000  0.53238  0.45833  1.0000
  Sn  Sn406     1.0  0.07143  0.55095  0.37500  1.0000
  Sn  Sn407     1.0  0.07143  0.61572  0.45833  1.0000
  Sn  Sn408     1.0  0.05596  0.52547  0.58890  1.0000
  Sn  Sn409     1.0  0.08690  0.64120  0.57777  1.0000
  Sn  Sn410     1.0  0.08690  0.52547  0.66110  1.0000
  Sn  Sn411     1.0  0.05596  0.64120  0.50557  1.0000
  Sn  Sn412     1.0  0.12739  0.60880  0.58890  1.0000
  Sn  Sn413     1.0  0.01547  0.60880  0.66110  1.0000
  Sn  Sn414     1.0  0.12739  0.55787  0.50557  1.0000
  Sn  Sn415     1.0  0.04120  0.61112  0.55930  1.0000
  Sn  Sn416     1.0  0.10166  0.55555  0.60737  1.0000
  Sn  Sn417     1.0  0.10166  0.61112  0.52403  1.0000
  Sn  Sn418     1.0  0.04120  0.55555  0.64263  1.0000
  Sn  Sn419     1.0  0.11263  0.52778  0.55930  1.0000
  Sn  Sn420     1.0  0.03023  0.63888  0.60737  1.0000
  Sn  Sn421     1.0  0.03023  0.52778  0.52403  1.0000
  Sn  Sn422     1.0  0.11263  0.63888  0.64263  1.0000
  Sn  Sn423     1.0  0.00000  0.63428  0.54167  1.0000
  Sn  Sn424     1.0  0.00000  0.53238  0.62500  1.0000
  Sn  Sn425     1.0  0.07143  0.55095  0.54167  1.0000
  Sn  Sn426     1.0  0.07143  0.61572  0.62500  1.0000
  Sn  Sn427     1.0  0.05596  0.52547  0.75557  1.0000
  Sn  Sn428     1.0  0.08690  0.64120  0.74443  1.0000
  Sn  Sn429     1.0  0.08690  0.52547  0.82777  1.0000
  Sn  Sn430     1.0  0.05596  0.64120  0.67223  1.0000
  Sn  Sn431     1.0  0.12739  0.60880  0.75557  1.0000
  Sn  Sn432     1.0  0.01547  0.55787  0.74443  1.0000
  Sn  Sn433     1.0  0.01547  0.60880  0.82777  1.0000
  Sn  Sn434     1.0  0.12739  0.55787  0.67223  1.0000
  Sn  Sn435     1.0  0.04120  0.61112  0.72597  1.0000
  Sn  Sn436     1.0  0.10166  0.61112  0.69070  1.0000
  Sn  Sn437     1.0  0.04120  0.55555  0.80930  1.0000
  Sn  Sn438     1.0  0.11263  0.52778  0.72597  1.0000
  Sn  Sn439     1.0  0.03023  0.63888  0.77403  1.0000
  Sn  Sn440     1.0  0.03023  0.52778  0.69070  1.0000
  Sn  Sn441     1.0  0.11263  0.63888  0.80930  1.0000
  Sn  Sn442     1.0  0.00000  0.63428  0.70833  1.0000
  Sn  Sn443     1.0  0.00000  0.53238  0.79167  1.0000
  Sn  Sn444     1.0  0.07143  0.55095  0.70833  1.0000
  Sn  Sn445     1.0  0.07143  0.61572  0.79167  1.0000
  Sn  Sn446     1.0  0.05596  0.52547  0.92223  1.0000
  Sn  Sn447     1.0  0.08690  0.64120  0.91110  1.0000
  Sn  Sn448     1.0  0.08690  0.52547  0.99443  1.0000
  Sn  Sn449     1.0  0.05596  0.64120  0.83890  1.0000
  Sn  Sn450     1.0  0.12739  0.60880  0.92223  1.0000
  Sn  Sn451     1.0  0.01547  0.55787  0.91110  1.0000
  Sn  Sn452     1.0  0.01547  0.60880  0.99443  1.0000
  Sn  Sn453     1.0  0.12739  0.55787  0.83890  1.0000
  Sn  Sn454     1.0  0.04120  0.61112  0.89263  1.0000
  Sn  Sn455     1.0  0.10166  0.55555  0.94070  1.0000
  Sn  Sn456     1.0  0.10166  0.61112  0.85737  1.0000
  Sn  Sn457     1.0  0.04120  0.55555  0.97597  1.0000
  Sn  Sn458     1.0  0.11263  0.52778  0.89263  1.0000
  Sn  Sn459     1.0  0.03023  0.63888  0.94070  1.0000
  Sn  Sn460     1.0  0.03023  0.52778  0.85737  1.0000
  Sn  Sn461     1.0  0.11263  0.63888  0.97597  1.0000
  Sn  Sn462     1.0  0.00000  0.63428  0.87500  1.0000
  Sn  Sn463     1.0  0.00000  0.53238  0.95833  1.0000
  Sn  Sn464     1.0  0.07143  0.55095  0.87500  1.0000
  Sn  Sn465     1.0  0.07143  0.61572  0.95833  1.0000
  Sn  Sn466     1.0  0.05596  0.69213  0.08890  1.0000
  Sn  Sn467     1.0  0.08690  0.80787  0.07777  1.0000
  Sn  Sn468     1.0  0.08690  0.69213  0.16110  1.0000
  Sn  Sn469     1.0  0.05596  0.80787  0.00557  1.0000
  Sn  Sn470     1.0  0.12739  0.77547  0.08890  1.0000
  Sn  Sn471     1.0  0.01547  0.72453  0.07777  1.0000
  Sn  Sn472     1.0  0.01547  0.77547  0.16110  1.0000
  Sn  Sn473     1.0  0.12739  0.72453  0.00557  1.0000
  Sn  Sn474     1.0  0.04120  0.77778  0.05930  1.0000
  Sn  Sn475     1.0  0.10166  0.72222  0.10737  1.0000
  Sn  Sn476     1.0  0.10166  0.77778  0.02403  1.0000
  Sn  Sn477     1.0  0.04120  0.72222  0.14263  1.0000
  Sn  Sn478     1.0  0.11263  0.69445  0.05930  1.0000
  Sn  Sn479     1.0  0.03023  0.80555  0.10737  1.0000
  Sn  Sn480     1.0  0.03023  0.69445  0.02403  1.0000
  Sn  Sn481     1.0  0.11263  0.80555  0.14263  1.0000
  Sn  Sn482     1.0  0.00000  0.80095  0.04167  1.0000
  Sn  Sn483     1.0  0.00000  0.69905  0.12500  1.0000
  Sn  Sn484     1.0  0.07143  0.71762  0.04167  1.0000
  Sn  Sn485     1.0  0.07143  0.78238  0.12500  1.0000
  Sn  Sn486     1.0  0.05596  0.69213  0.25557  1.0000
  Sn  Sn487     1.0  0.08690  0.80787  0.24443  1.0000
  Sn  Sn488     1.0  0.08690  0.69213  0.32777  1.0000
  Sn  Sn489     1.0  0.05596  0.80787  0.17223  1.0000
  Sn  Sn490     1.0  0.12739  0.77547  0.25557  1.0000
  Sn  Sn491     1.0  0.01547  0.72453  0.24443  1.0000
  Sn  Sn492     1.0  0.01547  0.77547  0.32777  1.0000
  Sn  Sn493     1.0  0.12739  0.72453  0.17223  1.0000
  Sn  Sn494     1.0  0.04120  0.77778  0.22597  1.0000
  Sn  Sn495     1.0  0.10166  0.72222  0.27403  1.0000
  Sn  Sn496     1.0  0.10166  0.77778  0.19070  1.0000
  Sn  Sn497     1.0  0.04120  0.72222  0.30930  1.0000
  Sn  Sn498     1.0  0.11263  0.69445  0.22597  1.0000
  Sn  Sn499     1.0  0.03023  0.80555  0.27403  1.0000
  Sn  Sn500     1.0  0.03023  0.69445  0.19070  1.0000
  Sn  Sn501     1.0  0.11263  0.80555  0.30930  1.0000
  Sn  Sn502     1.0  0.00000  0.80095  0.20833  1.0000
  Sn  Sn503     1.0  0.00000  0.69905  0.29167  1.0000
  Sn  Sn504     1.0  0.07143  0.71762  0.20833  1.0000
  Sn  Sn505     1.0  0.07143  0.78238  0.29167  1.0000
  Sn  Sn506     1.0  0.05596  0.69213  0.42223  1.0000
  Sn  Sn507     1.0  0.08690  0.80787  0.41110  1.0000
  Sn  Sn508     1.0  0.08690  0.69213  0.49443  1.0000
  Sn  Sn509     1.0  0.05596  0.80787  0.33890  1.0000
  Sn  Sn510     1.0  0.12739  0.77547  0.42223  1.0000
  Sn  Sn511     1.0  0.01547  0.72453  0.41110  1.0000
  Sn  Sn512     1.0  0.01547  0.77547  0.49443  1.0000
  Sn  Sn513     1.0  0.12739  0.72453  0.33890  1.0000
  Sn  Sn514     1.0  0.04120  0.77778  0.39263  1.0000
  Sn  Sn515     1.0  0.10166  0.72222  0.44070  1.0000
  Sn  Sn516     1.0  0.10166  0.77778  0.35737  1.0000
  Sn  Sn517     1.0  0.04120  0.72222  0.47597  1.0000
  Sn  Sn518     1.0  0.11263  0.69445  0.39263  1.0000
  Sn  Sn519     1.0  0.03023  0.80555  0.44070  1.0000
  Sn  Sn520     1.0  0.03023  0.69445  0.35737  1.0000
  Sn  Sn521     1.0  0.11263  0.80555  0.47597  1.0000
  Sn  Sn522     1.0  0.00000  0.80095  0.37500  1.0000
  Sn  Sn523     1.0  0.00000  0.69905  0.45833  1.0000
  Sn  Sn524     1.0  0.07143  0.71762  0.37500  1.0000
  Sn  Sn525     1.0  0.07143  0.78238  0.45833  1.0000
  Sn  Sn526     1.0  0.05596  0.69213  0.58890  1.0000
  Sn  Sn527     1.0  0.08690  0.80787  0.57777  1.0000
  Sn  Sn528     1.0  0.08690  0.69213  0.66110  1.0000
  Sn  Sn529     1.0  0.05596  0.80787  0.50557  1.0000
  Sn  Sn530     1.0  0.12739  0.77547  0.58890  1.0000
  Sn  Sn531     1.0  0.01547  0.72453  0.57777  1.0000
  Sn  Sn532     1.0  0.01547  0.77547  0.66110  1.0000
  Sn  Sn533     1.0  0.12739  0.72453  0.50557  1.0000
  Sn  Sn534     1.0  0.04120  0.77778  0.55930  1.0000
  Sn  Sn535     1.0  0.10166  0.72222  0.60737  1.0000
  Sn  Sn536     1.0  0.10166  0.77778  0.52403  1.0000
  Sn  Sn537     1.0  0.04120  0.72222  0.64263  1.0000
  Sn  Sn538     1.0  0.11263  0.69445  0.55930  1.0000
  Sn  Sn539     1.0  0.03023  0.80555  0.60737  1.0000
  Sn  Sn540     1.0  0.03023  0.69445  0.52403  1.0000
  Sn  Sn541     1.0  0.11263  0.80555  0.64263  1.0000
  Sn  Sn542     1.0  0.00000  0.69905  0.62500  1.0000
  Sn  Sn543     1.0  0.07143  0.71762  0.54167  1.0000
  Sn  Sn544     1.0  0.07143  0.78238  0.62500  1.0000
  Sn  Sn545     1.0  0.05596  0.69213  0.75557  1.0000
  Sn  Sn546     1.0  0.08690  0.80787  0.74443  1.0000
  Sn  Sn547     1.0  0.08690  0.69213  0.82777  1.0000
  Sn  Sn548     1.0  0.05596  0.80787  0.67223  1.0000
  Sn  Sn549     1.0  0.12739  0.77547  0.75557  1.0000
  Sn  Sn550     1.0  0.01547  0.72453  0.74443  1.0000
  Sn  Sn551     1.0  0.01547  0.77547  0.82777  1.0000
  Sn  Sn552     1.0  0.12739  0.72453  0.67223  1.0000
  Sn  Sn553     1.0  0.04120  0.77778  0.72597  1.0000
  Sn  Sn554     1.0  0.10166  0.72222  0.77403  1.0000
  Sn  Sn555     1.0  0.10166  0.77778  0.69070  1.0000
  Sn  Sn556     1.0  0.04120  0.72222  0.80930  1.0000
  Sn  Sn557     1.0  0.11263  0.69445  0.72597  1.0000
  Sn  Sn558     1.0  0.03023  0.80555  0.77403  1.0000
  Sn  Sn559     1.0  0.03023  0.69445  0.69070  1.0000
  Sn  Sn560     1.0  0.11263  0.80555  0.80930  1.0000
  Sn  Sn561     1.0  0.00000  0.80095  0.70833  1.0000
  Sn  Sn562     1.0  0.00000  0.69905  0.79167  1.0000
  Sn  Sn563     1.0  0.07143  0.71762  0.70833  1.0000
  Sn  Sn564     1.0  0.07143  0.78238  0.79167  1.0000
  Sn  Sn565     1.0  0.05596  0.69213  0.92223  1.0000
  Sn  Sn566     1.0  0.08690  0.80787  0.91110  1.0000
  Sn  Sn567     1.0  0.08690  0.69213  0.99443  1.0000
  Sn  Sn568     1.0  0.05596  0.80787  0.83890  1.0000
  Sn  Sn569     1.0  0.12739  0.77547  0.92223  1.0000
  Sn  Sn570     1.0  0.01547  0.72453  0.91110  1.0000
  Sn  Sn571     1.0  0.01547  0.77547  0.99443  1.0000
  Sn  Sn572     1.0  0.12739  0.72453  0.83890  1.0000
  Sn  Sn573     1.0  0.04120  0.77778  0.89263  1.0000
  Sn  Sn574     1.0  0.10166  0.72222  0.94070  1.0000
  Sn  Sn575     1.0  0.10166  0.77778  0.85737  1.0000
  Sn  Sn576     1.0  0.04120  0.72222  0.97597  1.0000
  Sn  Sn577     1.0  0.11263  0.69445  0.89263  1.0000
  Sn  Sn578     1.0  0.03023  0.80555  0.94070  1.0000
  Sn  Sn579     1.0  0.03023  0.69445  0.85737  1.0000
  Sn  Sn580     1.0  0.11263  0.80555  0.97597  1.0000
  Sn  Sn581     1.0  0.00000  0.80095  0.87500  1.0000
  Sn  Sn582     1.0  0.00000  0.69905  0.95833  1.0000
  Sn  Sn583     1.0  0.07143  0.78238  0.95833  1.0000
  Sn  Sn584     1.0  0.05596  0.85880  0.08890  1.0000
  Sn  Sn585     1.0  0.08690  0.85880  0.16110  1.0000
  Sn  Sn586     1.0  0.05596  0.97453  0.00557  1.0000
  Sn  Sn587     1.0  0.12739  0.94213  0.08890  1.0000
  Sn  Sn588     1.0  0.01547  0.89120  0.07777  1.0000
  Sn  Sn589     1.0  0.01547  0.94213  0.16110  1.0000
  Sn  Sn590     1.0  0.12739  0.89120  0.00557  1.0000
  Sn  Sn591     1.0  0.10166  0.88888  0.10737  1.0000
  Sn  Sn592     1.0  0.10166  0.94445  0.02403  1.0000
  Sn  Sn593     1.0  0.04120  0.88888  0.14263  1.0000
  Sn  Sn594     1.0  0.11263  0.86112  0.05930  1.0000
  Sn  Sn595     1.0  0.03023  0.97222  0.10737  1.0000
  Sn  Sn596     1.0  0.03023  0.86112  0.02403  1.0000
  Sn  Sn597     1.0  0.11263  0.97222  0.14263  1.0000
  Sn  Sn598     1.0  0.00000  0.96762  0.04167  1.0000
  Sn  Sn599     1.0  0.00000  0.86572  0.12500  1.0000
  Sn  Sn600     1.0  0.07143  0.88428  0.04167  1.0000
  Sn  Sn601     1.0  0.07143  0.94905  0.12500  1.0000
  Sn  Sn602     1.0  0.05596  0.85880  0.25557  1.0000
  Sn  Sn603     1.0  0.08690  0.97453  0.24443  1.0000
  Sn  Sn604     1.0  0.08690  0.85880  0.32777  1.0000
  Sn  Sn605     1.0  0.05596  0.97453  0.17223  1.0000
  Sn  Sn606     1.0  0.12739  0.94213  0.25557  1.0000
  Sn  Sn607     1.0  0.01547  0.89120  0.24443  1.0000
  Sn  Sn608     1.0  0.01547  0.94213  0.32777  1.0000
  Sn  Sn609     1.0  0.12739  0.89120  0.17223  1.0000
  Sn  Sn610     1.0  0.04120  0.94445  0.22597  1.0000
  Sn  Sn611     1.0  0.10166  0.88888  0.27403  1.0000
  Sn  Sn612     1.0  0.10166  0.94445  0.19070  1.0000
  Sn  Sn613     1.0  0.04120  0.88888  0.30930  1.0000
  Sn  Sn614     1.0  0.11263  0.86112  0.22597  1.0000
  Sn  Sn615     1.0  0.03023  0.97222  0.27403  1.0000
  Sn  Sn616     1.0  0.03023  0.86112  0.19070  1.0000
  Sn  Sn617     1.0  0.11263  0.97222  0.30930  1.0000
  Sn  Sn618     1.0  0.00000  0.96762  0.20833  1.0000
  Sn  Sn619     1.0  0.00000  0.86572  0.29167  1.0000
  Sn  Sn620     1.0  0.07143  0.88428  0.20833  1.0000
  Sn  Sn621     1.0  0.07143  0.94905  0.29167  1.0000
  Sn  Sn622     1.0  0.05596  0.85880  0.42223  1.0000
  Sn  Sn623     1.0  0.08690  0.97453  0.41110  1.0000
  Sn  Sn624     1.0  0.05596  0.97453  0.33890  1.0000
  Sn  Sn625     1.0  0.12739  0.94213  0.42223  1.0000
  Sn  Sn626     1.0  0.01547  0.89120  0.41110  1.0000
  Sn  Sn627     1.0  0.01547  0.94213  0.49443  1.0000
  Sn  Sn628     1.0  0.12739  0.89120  0.33890  1.0000
  Sn  Sn629     1.0  0.04120  0.94445  0.39263  1.0000
  Sn  Sn630     1.0  0.10166  0.88888  0.44070  1.0000
  Sn  Sn631     1.0  0.10166  0.94445  0.35737  1.0000
  Sn  Sn632     1.0  0.04120  0.88888  0.47597  1.0000
  Sn  Sn633     1.0  0.11263  0.86112  0.39263  1.0000
  Sn  Sn634     1.0  0.03023  0.97222  0.44070  1.0000
  Sn  Sn635     1.0  0.03023  0.86112  0.35737  1.0000
  Sn  Sn636     1.0  0.11263  0.97222  0.47597  1.0000
  Sn  Sn637     1.0  0.00000  0.96762  0.37500  1.0000
  Sn  Sn638     1.0  0.00000  0.86572  0.45833  1.0000
  Sn  Sn639     1.0  0.07143  0.88428  0.37500  1.0000
  Sn  Sn640     1.0  0.07143  0.94905  0.45833  1.0000
  Sn  Sn641     1.0  0.05596  0.85880  0.58890  1.0000
  Sn  Sn642     1.0  0.08690  0.97453  0.57777  1.0000
  Sn  Sn643     1.0  0.08690  0.85880  0.66110  1.0000
  Sn  Sn644     1.0  0.05596  0.97453  0.50557  1.0000
  Sn  Sn645     1.0  0.12739  0.94213  0.58890  1.0000
  Sn  Sn646     1.0  0.01547  0.94213  0.66110  1.0000
  Sn  Sn647     1.0  0.12739  0.89120  0.50557  1.0000
  Sn  Sn648     1.0  0.04120  0.94445  0.55930  1.0000
  Sn  Sn649     1.0  0.10166  0.88888  0.60737  1.0000
  Sn  Sn650     1.0  0.10166  0.94445  0.52403  1.0000
  Sn  Sn651     1.0  0.04120  0.88888  0.64263  1.0000
  Sn  Sn652     1.0  0.11263  0.86112  0.55930  1.0000
  Sn  Sn653     1.0  0.03023  0.97222  0.60737  1.0000
  Sn  Sn654     1.0  0.03023  0.86112  0.52403  1.0000
  Sn  Sn655     1.0  0.11263  0.97222  0.64263  1.0000
  Sn  Sn656     1.0  0.00000  0.96762  0.54167  1.0000
  Sn  Sn657     1.0  0.00000  0.86572  0.62500  1.0000
  Sn  Sn658     1.0  0.07143  0.88428  0.54167  1.0000
  Sn  Sn659     1.0  0.07143  0.94905  0.62500  1.0000
  Sn  Sn660     1.0  0.05596  0.85880  0.75557  1.0000
  Sn  Sn661     1.0  0.08690  0.97453  0.74443  1.0000
  Sn  Sn662     1.0  0.05596  0.97453  0.67223  1.0000
  Sn  Sn663     1.0  0.12739  0.94213  0.75557  1.0000
  Sn  Sn664     1.0  0.01547  0.89120  0.74443  1.0000
  Sn  Sn665     1.0  0.01547  0.94213  0.82777  1.0000
  Sn  Sn666     1.0  0.12739  0.89120  0.67223  1.0000
  Sn  Sn667     1.0  0.04120  0.94445  0.72597  1.0000
  Sn  Sn668     1.0  0.10166  0.88888  0.77403  1.0000
  Sn  Sn669     1.0  0.10166  0.94445  0.69070  1.0000
  Sn  Sn670     1.0  0.11263  0.86112  0.72597  1.0000
  Sn  Sn671     1.0  0.03023  0.97222  0.77403  1.0000
  Sn  Sn672     1.0  0.03023  0.86112  0.69070  1.0000
  Sn  Sn673     1.0  0.11263  0.97222  0.80930  1.0000
  Sn  Sn674     1.0  0.00000  0.96762  0.70833  1.0000
  Sn  Sn675     1.0  0.00000  0.86572  0.79167  1.0000
  Sn  Sn676     1.0  0.07143  0.88428  0.70833  1.0000
  Sn  Sn677     1.0  0.07143  0.94905  0.79167  1.0000
  Sn  Sn678     1.0  0.05596  0.85880  0.92223  1.0000
  Sn  Sn679     1.0  0.08690  0.97453  0.91110  1.0000
  Sn  Sn680     1.0  0.08690  0.85880  0.99443  1.0000
  Sn  Sn681     1.0  0.05596  0.97453  0.83890  1.0000
  Sn  Sn682     1.0  0.12739  0.94213  0.92223  1.0000
  Sn  Sn683     1.0  0.01547  0.89120  0.91110  1.0000
  Sn  Sn684     1.0  0.01547  0.94213  0.99443  1.0000
  Sn  Sn685     1.0  0.12739  0.89120  0.83890  1.0000
  Sn  Sn686     1.0  0.04120  0.94445  0.89263  1.0000
  Sn  Sn687     1.0  0.10166  0.88888  0.94070  1.0000
  Sn  Sn688     1.0  0.10166  0.94445  0.85737  1.0000
  Sn  Sn689     1.0  0.04120  0.88888  0.97597  1.0000
  Sn  Sn690     1.0  0.11263  0.86112  0.89263  1.0000
  Sn  Sn691     1.0  0.03023  0.97222  0.94070  1.0000
  Sn  Sn692     1.0  0.03023  0.86112  0.85737  1.0000
  Sn  Sn693     1.0  0.11263  0.97222  0.97597  1.0000
  Sn  Sn694     1.0  0.00000  0.96762  0.87500  1.0000
  Sn  Sn695     1.0  0.07143  0.88428  0.87500  1.0000
  Sn  Sn696     1.0  0.07143  0.94905  0.95833  1.0000
  Sn  Sn697     1.0  0.19881  0.02547  0.08890  1.0000
  Sn  Sn698     1.0  0.22976  0.14120  0.07777  1.0000
  Sn  Sn699     1.0  0.22976  0.02547  0.16110  1.0000
  Sn  Sn700     1.0  0.19881  0.14120  0.00557  1.0000
  Sn  Sn701     1.0  0.27024  0.10880  0.08890  1.0000
  Sn  Sn702     1.0  0.15833  0.10880  0.16110  1.0000
  Sn  Sn703     1.0  0.18406  0.11112  0.05930  1.0000
  Sn  Sn704     1.0  0.24451  0.05555  0.10737  1.0000
  Sn  Sn705     1.0  0.24451  0.11112  0.02403  1.0000
  Sn  Sn706     1.0  0.18406  0.05555  0.14263  1.0000
  Sn  Sn707     1.0  0.25549  0.02778  0.05930  1.0000
  Sn  Sn708     1.0  0.17309  0.13888  0.10737  1.0000
  Sn  Sn709     1.0  0.17309  0.02778  0.02403  1.0000
  Sn  Sn710     1.0  0.25549  0.13888  0.14263  1.0000
  Sn  Sn711     1.0  0.14286  0.13428  0.04167  1.0000
  Sn  Sn712     1.0  0.14286  0.03238  0.12500  1.0000
  Sn  Sn713     1.0  0.21429  0.05095  0.04167  1.0000
  Sn  Sn714     1.0  0.21429  0.11572  0.12500  1.0000
  Sn  Sn715     1.0  0.19881  0.02547  0.25557  1.0000
  Sn  Sn716     1.0  0.22976  0.14120  0.24443  1.0000
  Sn  Sn717     1.0  0.22976  0.02547  0.32777  1.0000
  Sn  Sn718     1.0  0.19881  0.14120  0.17223  1.0000
  Sn  Sn719     1.0  0.27024  0.10880  0.25557  1.0000
  Sn  Sn720     1.0  0.15833  0.05787  0.24443  1.0000
  Sn  Sn721     1.0  0.15833  0.10880  0.32777  1.0000
  Sn  Sn722     1.0  0.27024  0.05787  0.17223  1.0000
  Sn  Sn723     1.0  0.18406  0.11112  0.22597  1.0000
  Sn  Sn724     1.0  0.24451  0.05555  0.27403  1.0000
  Sn  Sn725     1.0  0.24451  0.11112  0.19070  1.0000
  Sn  Sn726     1.0  0.18406  0.05555  0.30930  1.0000
  Sn  Sn727     1.0  0.25549  0.02778  0.22597  1.0000
  Sn  Sn728     1.0  0.17309  0.13888  0.27403  1.0000
  Sn  Sn729     1.0  0.17309  0.02778  0.19070  1.0000
  Sn  Sn730     1.0  0.14286  0.03238  0.29167  1.0000
  Sn  Sn731     1.0  0.21429  0.05095  0.20833  1.0000
  Sn  Sn732     1.0  0.21429  0.11572  0.29167  1.0000
  Sn  Sn733     1.0  0.19881  0.02547  0.42223  1.0000
  Sn  Sn734     1.0  0.22976  0.14120  0.41110  1.0000
  Sn  Sn735     1.0  0.22976  0.02547  0.49443  1.0000
  Sn  Sn736     1.0  0.19881  0.14120  0.33890  1.0000
  Sn  Sn737     1.0  0.27024  0.10880  0.42223  1.0000
  Sn  Sn738     1.0  0.15833  0.05787  0.41110  1.0000
  Sn  Sn739     1.0  0.15833  0.10880  0.49443  1.0000
  Sn  Sn740     1.0  0.27024  0.05787  0.33890  1.0000
  Sn  Sn741     1.0  0.18406  0.11112  0.39263  1.0000
  Sn  Sn742     1.0  0.24451  0.05555  0.44070  1.0000
  Sn  Sn743     1.0  0.24451  0.11112  0.35737  1.0000
  Sn  Sn744     1.0  0.18406  0.05555  0.47597  1.0000
  Sn  Sn745     1.0  0.25549  0.02778  0.39263  1.0000
  Sn  Sn746     1.0  0.17309  0.13888  0.44070  1.0000
  Sn  Sn747     1.0  0.17309  0.02778  0.35737  1.0000
  Sn  Sn748     1.0  0.25549  0.13888  0.47597  1.0000
  Sn  Sn749     1.0  0.14286  0.13428  0.37500  1.0000
  Sn  Sn750     1.0  0.14286  0.03238  0.45833  1.0000
  Sn  Sn751     1.0  0.21429  0.05095  0.37500  1.0000
  Sn  Sn752     1.0  0.21429  0.11572  0.45833  1.0000
  Sn  Sn753     1.0  0.19881  0.02547  0.58890  1.0000
  Sn  Sn754     1.0  0.22976  0.14120  0.57777  1.0000
  Sn  Sn755     1.0  0.22976  0.02547  0.66110  1.0000
  Sn  Sn756     1.0  0.19881  0.14120  0.50557  1.0000
  Sn  Sn757     1.0  0.27024  0.10880  0.58890  1.0000
  Sn  Sn758     1.0  0.15833  0.05787  0.57777  1.0000
  Sn  Sn759     1.0  0.15833  0.10880  0.66110  1.0000
  Sn  Sn760     1.0  0.27024  0.05787  0.50557  1.0000
  Sn  Sn761     1.0  0.18406  0.11112  0.55930  1.0000
  Sn  Sn762     1.0  0.24451  0.05555  0.60737  1.0000
  Sn  Sn763     1.0  0.24451  0.11112  0.52403  1.0000
  Sn  Sn764     1.0  0.18406  0.05555  0.64263  1.0000
  Sn  Sn765     1.0  0.25549  0.02778  0.55930  1.0000
  Sn  Sn766     1.0  0.17309  0.13888  0.60737  1.0000
  Sn  Sn767     1.0  0.17309  0.02778  0.52403  1.0000
  Sn  Sn768     1.0  0.25549  0.13888  0.64263  1.0000
  Sn  Sn769     1.0  0.14286  0.13428  0.54167  1.0000
  Sn  Sn770     1.0  0.14286  0.03238  0.62500  1.0000
  Sn  Sn771     1.0  0.21429  0.05095  0.54167  1.0000
  Sn  Sn772     1.0  0.21429  0.11572  0.62500  1.0000
  Sn  Sn773     1.0  0.19881  0.02547  0.75557  1.0000
  Sn  Sn774     1.0  0.22976  0.14120  0.74443  1.0000
  Sn  Sn775     1.0  0.22976  0.02547  0.82777  1.0000
  Sn  Sn776     1.0  0.19881  0.14120  0.67223  1.0000
  Sn  Sn777     1.0  0.27024  0.10880  0.75557  1.0000
  Sn  Sn778     1.0  0.15833  0.05787  0.74443  1.0000
  Sn  Sn779     1.0  0.15833  0.10880  0.82777  1.0000
  Sn  Sn780     1.0  0.27024  0.05787  0.67223  1.0000
  Sn  Sn781     1.0  0.18406  0.11112  0.72597  1.0000
  Sn  Sn782     1.0  0.24451  0.05555  0.77403  1.0000
  Sn  Sn783     1.0  0.24451  0.11112  0.69070  1.0000
  Sn  Sn784     1.0  0.18406  0.05555  0.80930  1.0000
  Sn  Sn785     1.0  0.25549  0.02778  0.72597  1.0000
  Sn  Sn786     1.0  0.17309  0.13888  0.77403  1.0000
  Sn  Sn787     1.0  0.17309  0.02778  0.69070  1.0000
  Sn  Sn788     1.0  0.25549  0.13888  0.80930  1.0000
  Sn  Sn789     1.0  0.14286  0.13428  0.70833  1.0000
  Sn  Sn790     1.0  0.14286  0.03238  0.79167  1.0000
  Sn  Sn791     1.0  0.21429  0.05095  0.70833  1.0000
  Sn  Sn792     1.0  0.21429  0.11572  0.79167  1.0000
  Sn  Sn793     1.0  0.19881  0.02547  0.92223  1.0000
  Sn  Sn794     1.0  0.22976  0.02547  0.99443  1.0000
  Sn  Sn795     1.0  0.19881  0.14120  0.83890  1.0000
  Sn  Sn796     1.0  0.27024  0.10880  0.92223  1.0000
  Sn  Sn797     1.0  0.15833  0.05787  0.91110  1.0000
  Sn  Sn798     1.0  0.15833  0.10880  0.99443  1.0000
  Sn  Sn799     1.0  0.27024  0.05787  0.83890  1.0000
  Sn  Sn800     1.0  0.18406  0.11112  0.89263  1.0000
  Sn  Sn801     1.0  0.24451  0.05555  0.94070  1.0000
  Sn  Sn802     1.0  0.24451  0.11112  0.85737  1.0000
  Sn  Sn803     1.0  0.18406  0.05555  0.97597  1.0000
  Sn  Sn804     1.0  0.25549  0.02778  0.89263  1.0000
  Sn  Sn805     1.0  0.17309  0.13888  0.94070  1.0000
  Sn  Sn806     1.0  0.17309  0.02778  0.85737  1.0000
  Sn  Sn807     1.0  0.25549  0.13888  0.97597  1.0000
  Sn  Sn808     1.0  0.14286  0.13428  0.87500  1.0000
  Sn  Sn809     1.0  0.14286  0.03238  0.95833  1.0000
  Sn  Sn810     1.0  0.21429  0.05095  0.87500  1.0000
  Sn  Sn811     1.0  0.21429  0.11572  0.95833  1.0000
  Sn  Sn812     1.0  0.19881  0.19213  0.08890  1.0000
  Sn  Sn813     1.0  0.22976  0.30787  0.07777  1.0000
  Sn  Sn814     1.0  0.22976  0.19213  0.16110  1.0000
  Sn  Sn815     1.0  0.19881  0.30787  0.00557  1.0000
  Sn  Sn816     1.0  0.27024  0.27547  0.08890  1.0000
  Sn  Sn817     1.0  0.15833  0.22453  0.07777  1.0000
  Sn  Sn818     1.0  0.15833  0.27547  0.16110  1.0000
  Sn  Sn819     1.0  0.27024  0.22453  0.00557  1.0000
  Sn  Sn820     1.0  0.18406  0.27778  0.05930  1.0000
  Sn  Sn821     1.0  0.24451  0.22222  0.10737  1.0000
  Sn  Sn822     1.0  0.24451  0.27778  0.02403  1.0000
  Sn  Sn823     1.0  0.18406  0.22222  0.14263  1.0000
  Sn  Sn824     1.0  0.25549  0.19445  0.05930  1.0000
  Sn  Sn825     1.0  0.17309  0.30555  0.10737  1.0000
  Sn  Sn826     1.0  0.17309  0.19445  0.02403  1.0000
  Sn  Sn827     1.0  0.25549  0.30555  0.14263  1.0000
  Sn  Sn828     1.0  0.14286  0.30095  0.04167  1.0000
  Sn  Sn829     1.0  0.14286  0.19905  0.12500  1.0000
  Sn  Sn830     1.0  0.21429  0.21762  0.04167  1.0000
  Sn  Sn831     1.0  0.21429  0.28238  0.12500  1.0000
  Sn  Sn832     1.0  0.19881  0.19213  0.25557  1.0000
  Sn  Sn833     1.0  0.22976  0.30787  0.24443  1.0000
  Sn  Sn834     1.0  0.22976  0.19213  0.32777  1.0000
  Sn  Sn835     1.0  0.19881  0.30787  0.17223  1.0000
  Sn  Sn836     1.0  0.27024  0.27547  0.25557  1.0000
  Sn  Sn837     1.0  0.15833  0.22453  0.24443  1.0000
  Sn  Sn838     1.0  0.15833  0.27547  0.32777  1.0000
  Sn  Sn839     1.0  0.27024  0.22453  0.17223  1.0000
  Sn  Sn840     1.0  0.18406  0.27778  0.22597  1.0000
  Sn  Sn841     1.0  0.24451  0.22222  0.27403  1.0000
  Sn  Sn842     1.0  0.24451  0.27778  0.19070  1.0000
  Sn  Sn843     1.0  0.18406  0.22222  0.30930  1.0000
  Sn  Sn844     1.0  0.25549  0.19445  0.22597  1.0000
  Sn  Sn845     1.0  0.17309  0.30555  0.27403  1.0000
  Sn  Sn846     1.0  0.17309  0.19445  0.19070  1.0000
  Sn  Sn847     1.0  0.14286  0.30095  0.20833  1.0000
  Sn  Sn848     1.0  0.14286  0.19905  0.29167  1.0000
  Sn  Sn849     1.0  0.21429  0.21762  0.20833  1.0000
  Sn  Sn850     1.0  0.21429  0.28238  0.29167  1.0000
  Sn  Sn851     1.0  0.19881  0.19213  0.42223  1.0000
  Sn  Sn852     1.0  0.22976  0.30787  0.41110  1.0000
  Sn  Sn853     1.0  0.22976  0.19213  0.49443  1.0000
  Sn  Sn854     1.0  0.19881  0.30787  0.33890  1.0000
  Sn  Sn855     1.0  0.27024  0.27547  0.42223  1.0000
  Sn  Sn856     1.0  0.15833  0.22453  0.41110  1.0000
  Sn  Sn857     1.0  0.15833  0.27547  0.49443  1.0000
  Sn  Sn858     1.0  0.27024  0.22453  0.33890  1.0000
  Sn  Sn859     1.0  0.18406  0.27778  0.39263  1.0000
  Sn  Sn860     1.0  0.24451  0.22222  0.44070  1.0000
  Sn  Sn861     1.0  0.24451  0.27778  0.35737  1.0000
  Sn  Sn862     1.0  0.18406  0.22222  0.47597  1.0000
  Sn  Sn863     1.0  0.25549  0.19445  0.39263  1.0000
  Sn  Sn864     1.0  0.17309  0.30555  0.44070  1.0000
  Sn  Sn865     1.0  0.17309  0.19445  0.35737  1.0000
  Sn  Sn866     1.0  0.25549  0.30555  0.47597  1.0000
  Sn  Sn867     1.0  0.14286  0.30095  0.37500  1.0000
  Sn  Sn868     1.0  0.14286  0.19905  0.45833  1.0000
  Sn  Sn869     1.0  0.21429  0.21762  0.37500  1.0000
  Sn  Sn870     1.0  0.21429  0.28238  0.45833  1.0000
  Sn  Sn871     1.0  0.19881  0.19213  0.58890  1.0000
  Sn  Sn872     1.0  0.22976  0.30787  0.57777  1.0000
  Sn  Sn873     1.0  0.19881  0.30787  0.50557  1.0000
  Sn  Sn874     1.0  0.27024  0.27547  0.58890  1.0000
  Sn  Sn875     1.0  0.15833  0.22453  0.57777  1.0000
  Sn  Sn876     1.0  0.15833  0.27547  0.66110  1.0000
  Sn  Sn877     1.0  0.27024  0.22453  0.50557  1.0000
  Sn  Sn878     1.0  0.18406  0.27778  0.55930  1.0000
  Sn  Sn879     1.0  0.24451  0.22222  0.60737  1.0000
  Sn  Sn880     1.0  0.24451  0.27778  0.52403  1.0000
  Sn  Sn881     1.0  0.18406  0.22222  0.64263  1.0000
  Sn  Sn882     1.0  0.25549  0.19445  0.55930  1.0000
  Sn  Sn883     1.0  0.17309  0.30555  0.60737  1.0000
  Sn  Sn884     1.0  0.17309  0.19445  0.52403  1.0000
  Sn  Sn885     1.0  0.25549  0.30555  0.64263  1.0000
  Sn  Sn886     1.0  0.14286  0.30095  0.54167  1.0000
  Sn  Sn887     1.0  0.21429  0.21762  0.54167  1.0000
  Sn  Sn888     1.0  0.21429  0.28238  0.62500  1.0000
  Sn  Sn889     1.0  0.19881  0.19213  0.75557  1.0000
  Sn  Sn890     1.0  0.22976  0.30787  0.74443  1.0000
  Sn  Sn891     1.0  0.22976  0.19213  0.82777  1.0000
  Sn  Sn892     1.0  0.19881  0.30787  0.67223  1.0000
  Sn  Sn893     1.0  0.27024  0.27547  0.75557  1.0000
  Sn  Sn894     1.0  0.15833  0.22453  0.74443  1.0000
  Sn  Sn895     1.0  0.15833  0.27547  0.82777  1.0000
  Sn  Sn896     1.0  0.27024  0.22453  0.67223  1.0000
  Sn  Sn897     1.0  0.18406  0.27778  0.72597  1.0000
  Sn  Sn898     1.0  0.24451  0.22222  0.77403  1.0000
  Sn  Sn899     1.0  0.24451  0.27778  0.69070  1.0000
  Sn  Sn900     1.0  0.18406  0.22222  0.80930  1.0000
  Sn  Sn901     1.0  0.25549  0.19445  0.72597  1.0000
  Sn  Sn902     1.0  0.17309  0.30555  0.77403  1.0000
  Sn  Sn903     1.0  0.17309  0.19445  0.69070  1.0000
  Sn  Sn904     1.0  0.14286  0.30095  0.70833  1.0000
  Sn  Sn905     1.0  0.21429  0.21762  0.70833  1.0000
  Sn  Sn906     1.0  0.21429  0.28238  0.79167  1.0000
  Sn  Sn907     1.0  0.19881  0.19213  0.92223  1.0000
  Sn  Sn908     1.0  0.22976  0.30787  0.91110  1.0000
  Sn  Sn909     1.0  0.22976  0.19213  0.99443  1.0000
  Sn  Sn910     1.0  0.19881  0.30787  0.83890  1.0000
  Sn  Sn911     1.0  0.27024  0.27547  0.92223  1.0000
  Sn  Sn912     1.0  0.15833  0.22453  0.91110  1.0000
  Sn  Sn913     1.0  0.27024  0.22453  0.83890  1.0000
  Sn  Sn914     1.0  0.18406  0.27778  0.89263  1.0000
  Sn  Sn915     1.0  0.24451  0.22222  0.94070  1.0000
  Sn  Sn916     1.0  0.24451  0.27778  0.85737  1.0000
  Sn  Sn917     1.0  0.18406  0.22222  0.97597  1.0000
  Sn  Sn918     1.0  0.25549  0.19445  0.89263  1.0000
  Sn  Sn919     1.0  0.17309  0.30555  0.94070  1.0000
  Sn  Sn920     1.0  0.17309  0.19445  0.85737  1.0000
  Sn  Sn921     1.0  0.25549  0.30555  0.97597  1.0000
  Sn  Sn922     1.0  0.14286  0.19905  0.95833  1.0000
  Sn  Sn923     1.0  0.21429  0.21762  0.87500  1.0000
  Sn  Sn924     1.0  0.21429  0.28238  0.95833  1.0000
  Sn  Sn925     1.0  0.19881  0.35880  0.08890  1.0000
  Sn  Sn926     1.0  0.22976  0.47453  0.07777  1.0000
  Sn  Sn927     1.0  0.22976  0.35880  0.16110  1.0000
  Sn  Sn928     1.0  0.19881  0.47453  0.00557  1.0000
  Sn  Sn929     1.0  0.27024  0.44213  0.08890  1.0000
  Sn  Sn930     1.0  0.15833  0.39120  0.07777  1.0000
  Sn  Sn931     1.0  0.15833  0.44213  0.16110  1.0000
  Sn  Sn932     1.0  0.27024  0.39120  0.00557  1.0000
  Sn  Sn933     1.0  0.18406  0.44445  0.05930  1.0000
  Sn  Sn934     1.0  0.24451  0.38888  0.10737  1.0000
  Sn  Sn935     1.0  0.24451  0.44445  0.02403  1.0000
  Sn  Sn936     1.0  0.18406  0.38888  0.14263  1.0000
  Sn  Sn937     1.0  0.25549  0.36112  0.05930  1.0000
  Sn  Sn938     1.0  0.17309  0.47222  0.10737  1.0000
  Sn  Sn939     1.0  0.17309  0.36112  0.02403  1.0000
  Sn  Sn940     1.0  0.25549  0.47222  0.14263  1.0000
  Sn  Sn941     1.0  0.14286  0.46762  0.04167  1.0000
  Sn  Sn942     1.0  0.14286  0.36572  0.12500  1.0000
  Sn  Sn943     1.0  0.21429  0.38428  0.04167  1.0000
  Sn  Sn944     1.0  0.21429  0.44905  0.12500  1.0000
  Sn  Sn945     1.0  0.19881  0.35880  0.25557  1.0000
  Sn  Sn946     1.0  0.22976  0.47453  0.24443  1.0000
  Sn  Sn947     1.0  0.22976  0.35880  0.32777  1.0000
  Sn  Sn948     1.0  0.19881  0.47453  0.17223  1.0000
  Sn  Sn949     1.0  0.27024  0.44213  0.25557  1.0000
  Sn  Sn950     1.0  0.15833  0.39120  0.24443  1.0000
  Sn  Sn951     1.0  0.15833  0.44213  0.32777  1.0000
  Sn  Sn952     1.0  0.27024  0.39120  0.17223  1.0000
  Sn  Sn953     1.0  0.18406  0.44445  0.22597  1.0000
  Sn  Sn954     1.0  0.24451  0.38888  0.27403  1.0000
  Sn  Sn955     1.0  0.24451  0.44445  0.19070  1.0000
  Sn  Sn956     1.0  0.18406  0.38888  0.30930  1.0000
  Sn  Sn957     1.0  0.25549  0.36112  0.22597  1.0000
  Sn  Sn958     1.0  0.17309  0.47222  0.27403  1.0000
  Sn  Sn959     1.0  0.17309  0.36112  0.19070  1.0000
  Sn  Sn960     1.0  0.25549  0.47222  0.30930  1.0000
  Sn  Sn961     1.0  0.14286  0.46762  0.20833  1.0000
  Sn  Sn962     1.0  0.21429  0.38428  0.20833  1.0000
  Sn  Sn963     1.0  0.21429  0.44905  0.29167  1.0000
  Sn  Sn964     1.0  0.22976  0.47453  0.41110  1.0000
  Sn  Sn965     1.0  0.22976  0.35880  0.49443  1.0000
  Sn  Sn966     1.0  0.19881  0.47453  0.33890  1.0000
  Sn  Sn967     1.0  0.27024  0.44213  0.42223  1.0000
  Sn  Sn968     1.0  0.15833  0.39120  0.41110  1.0000
  Sn  Sn969     1.0  0.15833  0.44213  0.49443  1.0000
  Sn  Sn970     1.0  0.27024  0.39120  0.33890  1.0000
  Sn  Sn971     1.0  0.18406  0.44445  0.39263  1.0000
  Sn  Sn972     1.0  0.24451  0.38888  0.44070  1.0000
  Sn  Sn973     1.0  0.24451  0.44445  0.35737  1.0000
  Sn  Sn974     1.0  0.18406  0.38888  0.47597  1.0000
  Sn  Sn975     1.0  0.25549  0.36112  0.39263  1.0000
  Sn  Sn976     1.0  0.17309  0.47222  0.44070  1.0000
  Sn  Sn977     1.0  0.17309  0.36112  0.35737  1.0000
  Sn  Sn978     1.0  0.25549  0.47222  0.47597  1.0000
  Sn  Sn979     1.0  0.14286  0.46762  0.37500  1.0000
  Sn  Sn980     1.0  0.14286  0.36572  0.45833  1.0000
  Sn  Sn981     1.0  0.21429  0.38428  0.37500  1.0000
  Sn  Sn982     1.0  0.19881  0.35880  0.58890  1.0000
  Sn  Sn983     1.0  0.22976  0.47453  0.57777  1.0000
  Sn  Sn984     1.0  0.22976  0.35880  0.66110  1.0000
  Sn  Sn985     1.0  0.19881  0.47453  0.50557  1.0000
  Sn  Sn986     1.0  0.27024  0.44213  0.58890  1.0000
  Sn  Sn987     1.0  0.15833  0.39120  0.57777  1.0000
  Sn  Sn988     1.0  0.15833  0.44213  0.66110  1.0000
  Sn  Sn989     1.0  0.27024  0.39120  0.50557  1.0000
  Sn  Sn990     1.0  0.18406  0.44445  0.55930  1.0000
  Sn  Sn991     1.0  0.24451  0.38888  0.60737  1.0000
  Sn  Sn992     1.0  0.18406  0.38888  0.64263  1.0000
  Sn  Sn993     1.0  0.25549  0.36112  0.55930  1.0000
  Sn  Sn994     1.0  0.17309  0.47222  0.60737  1.0000
  Sn  Sn995     1.0  0.17309  0.36112  0.52403  1.0000
  Sn  Sn996     1.0  0.25549  0.47222  0.64263  1.0000
  Sn  Sn997     1.0  0.14286  0.46762  0.54167  1.0000
  Sn  Sn998     1.0  0.14286  0.36572  0.62500  1.0000
  Sn  Sn999     1.0  0.21429  0.38428  0.54167  1.0000
  Sn  Sn1000    1.0  0.21429  0.44905  0.62500  1.0000
  Sn  Sn1001    1.0  0.19881  0.35880  0.75557  1.0000
  Sn  Sn1002    1.0  0.22976  0.47453  0.74443  1.0000
  Sn  Sn1003    1.0  0.22976  0.35880  0.82777  1.0000
  Sn  Sn1004    1.0  0.19881  0.47453  0.67223  1.0000
  Sn  Sn1005    1.0  0.27024  0.44213  0.75557  1.0000
  Sn  Sn1006    1.0  0.15833  0.39120  0.74443  1.0000
  Sn  Sn1007    1.0  0.15833  0.44213  0.82777  1.0000
  Sn  Sn1008    1.0  0.27024  0.39120  0.67223  1.0000
  Sn  Sn1009    1.0  0.18406  0.44445  0.72597  1.0000
  Sn  Sn1010    1.0  0.24451  0.38888  0.77403  1.0000
  Sn  Sn1011    1.0  0.24451  0.44445  0.69070  1.0000
  Sn  Sn1012    1.0  0.18406  0.38888  0.80930  1.0000
  Sn  Sn1013    1.0  0.25549  0.36112  0.72597  1.0000
  Sn  Sn1014    1.0  0.17309  0.47222  0.77403  1.0000
  Sn  Sn1015    1.0  0.17309  0.36112  0.69070  1.0000
  Sn  Sn1016    1.0  0.25549  0.47222  0.80930  1.0000
  Sn  Sn1017    1.0  0.14286  0.46762  0.70833  1.0000
  Sn  Sn1018    1.0  0.14286  0.36572  0.79167  1.0000
  Sn  Sn1019    1.0  0.21429  0.38428  0.70833  1.0000
  Sn  Sn1020    1.0  0.21429  0.44905  0.79167  1.0000
  Sn  Sn1021    1.0  0.19881  0.35880  0.92223  1.0000
  Sn  Sn1022    1.0  0.22976  0.47453  0.91110  1.0000
  Sn  Sn1023    1.0  0.22976  0.35880  0.99443  1.0000
  Sn  Sn1024    1.0  0.19881  0.47453  0.83890  1.0000
  Sn  Sn1025    1.0  0.27024  0.44213  0.92223  1.0000
  Sn  Sn1026    1.0  0.15833  0.39120  0.91110  1.0000
  Sn  Sn1027    1.0  0.15833  0.44213  0.99443  1.0000
  Sn  Sn1028    1.0  0.27024  0.39120  0.83890  1.0000
  Sn  Sn1029    1.0  0.18406  0.44445  0.89263  1.0000
  Sn  Sn1030    1.0  0.24451  0.38888  0.94070  1.0000
  Sn  Sn1031    1.0  0.24451  0.44445  0.85737  1.0000
  Sn  Sn1032    1.0  0.18406  0.38888  0.97597  1.0000
  Sn  Sn1033    1.0  0.25549  0.36112  0.89263  1.0000
  Sn  Sn1034    1.0  0.17309  0.47222  0.94070  1.0000
  Sn  Sn1035    1.0  0.17309  0.36112  0.85737  1.0000
  Sn  Sn1036    1.0  0.25549  0.47222  0.97597  1.0000
  Sn  Sn1037    1.0  0.14286  0.46762  0.87500  1.0000
  Sn  Sn1038    1.0  0.14286  0.36572  0.95833  1.0000
  Sn  Sn1039    1.0  0.21429  0.38428  0.87500  1.0000
  Sn  Sn1040    1.0  0.21429  0.44905  0.95833  1.0000
  Sn  Sn1041    1.0  0.19881  0.52547  0.08890  1.0000
  Sn  Sn1042    1.0  0.22976  0.64120  0.07777  1.0000
  Sn  Sn1043    1.0  0.22976  0.52547  0.16110  1.0000
  Sn  Sn1044    1.0  0.19881  0.64120  0.00557  1.0000
  Sn  Sn1045    1.0  0.27024  0.60880  0.08890  1.0000
  Sn  Sn1046    1.0  0.15833  0.55787  0.07777  1.0000
  Sn  Sn1047    1.0  0.15833  0.60880  0.16110  1.0000
  Sn  Sn1048    1.0  0.27024  0.55787  0.00557  1.0000
  Sn  Sn1049    1.0  0.18406  0.61112  0.05930  1.0000
  Sn  Sn1050    1.0  0.24451  0.55555  0.10737  1.0000
  Sn  Sn1051    1.0  0.24451  0.61112  0.02403  1.0000
  Sn  Sn1052    1.0  0.18406  0.55555  0.14263  1.0000
  Sn  Sn1053    1.0  0.25549  0.52778  0.05930  1.0000
  Sn  Sn1054    1.0  0.17309  0.63888  0.10737  1.0000
  Sn  Sn1055    1.0  0.17309  0.52778  0.02403  1.0000
  Sn  Sn1056    1.0  0.25549  0.63888  0.14263  1.0000
  Sn  Sn1057    1.0  0.14286  0.63428  0.04167  1.0000
  Sn  Sn1058    1.0  0.14286  0.53238  0.12500  1.0000
  Sn  Sn1059    1.0  0.21429  0.55095  0.04167  1.0000
  Sn  Sn1060    1.0  0.21429  0.61572  0.12500  1.0000
  Sn  Sn1061    1.0  0.19881  0.52547  0.25557  1.0000
  Sn  Sn1062    1.0  0.22976  0.64120  0.24443  1.0000
  Sn  Sn1063    1.0  0.22976  0.52547  0.32777  1.0000
  Sn  Sn1064    1.0  0.19881  0.64120  0.17223  1.0000
  Sn  Sn1065    1.0  0.27024  0.60880  0.25557  1.0000
  Sn  Sn1066    1.0  0.15833  0.55787  0.24443  1.0000
  Sn  Sn1067    1.0  0.15833  0.60880  0.32777  1.0000
  Sn  Sn1068    1.0  0.18406  0.61112  0.22597  1.0000
  Sn  Sn1069    1.0  0.24451  0.55555  0.27403  1.0000
  Sn  Sn1070    1.0  0.24451  0.61112  0.19070  1.0000
  Sn  Sn1071    1.0  0.18406  0.55555  0.30930  1.0000
  Sn  Sn1072    1.0  0.25549  0.52778  0.22597  1.0000
  Sn  Sn1073    1.0  0.17309  0.63888  0.27403  1.0000
  Sn  Sn1074    1.0  0.17309  0.52778  0.19070  1.0000
  Sn  Sn1075    1.0  0.25549  0.63888  0.30930  1.0000
  Sn  Sn1076    1.0  0.14286  0.63428  0.20833  1.0000
  Sn  Sn1077    1.0  0.14286  0.53238  0.29167  1.0000
  Sn  Sn1078    1.0  0.21429  0.55095  0.20833  1.0000
  Sn  Sn1079    1.0  0.21429  0.61572  0.29167  1.0000
  Sn  Sn1080    1.0  0.19881  0.52547  0.42223  1.0000
  Sn  Sn1081    1.0  0.22976  0.64120  0.41110  1.0000
  Sn  Sn1082    1.0  0.22976  0.52547  0.49443  1.0000
  Sn  Sn1083    1.0  0.19881  0.64120  0.33890  1.0000
  Sn  Sn1084    1.0  0.27024  0.60880  0.42223  1.0000
  Sn  Sn1085    1.0  0.15833  0.55787  0.41110  1.0000
  Sn  Sn1086    1.0  0.27024  0.55787  0.33890  1.0000
  Sn  Sn1087    1.0  0.18406  0.61112  0.39263  1.0000
  Sn  Sn1088    1.0  0.24451  0.55555  0.44070  1.0000
  Sn  Sn1089    1.0  0.24451  0.61112  0.35737  1.0000
  Sn  Sn1090    1.0  0.18406  0.55555  0.47597  1.0000
  Sn  Sn1091    1.0  0.25549  0.52778  0.39263  1.0000
  Sn  Sn1092    1.0  0.17309  0.63888  0.44070  1.0000
  Sn  Sn1093    1.0  0.17309  0.52778  0.35737  1.0000
  Sn  Sn1094    1.0  0.25549  0.63888  0.47597  1.0000
  Sn  Sn1095    1.0  0.14286  0.63428  0.37500  1.0000
  Sn  Sn1096    1.0  0.14286  0.53238  0.45833  1.0000
  Sn  Sn1097    1.0  0.21429  0.55095  0.37500  1.0000
  Sn  Sn1098    1.0  0.21429  0.61572  0.45833  1.0000
  Sn  Sn1099    1.0  0.22976  0.64120  0.57777  1.0000
  Sn  Sn1100    1.0  0.22976  0.52547  0.66110  1.0000
  Sn  Sn1101    1.0  0.19881  0.64120  0.50557  1.0000
  Sn  Sn1102    1.0  0.27024  0.60880  0.58890  1.0000
  Sn  Sn1103    1.0  0.15833  0.55787  0.57777  1.0000
  Sn  Sn1104    1.0  0.15833  0.60880  0.66110  1.0000
  Sn  Sn1105    1.0  0.27024  0.55787  0.50557  1.0000
  Sn  Sn1106    1.0  0.18406  0.61112  0.55930  1.0000
  Sn  Sn1107    1.0  0.24451  0.55555  0.60737  1.0000
  Sn  Sn1108    1.0  0.24451  0.61112  0.52403  1.0000
  Sn  Sn1109    1.0  0.18406  0.55555  0.64263  1.0000
  Sn  Sn1110    1.0  0.25549  0.52778  0.55930  1.0000
  Sn  Sn1111    1.0  0.17309  0.63888  0.60737  1.0000
  Sn  Sn1112    1.0  0.17309  0.52778  0.52403  1.0000
  Sn  Sn1113    1.0  0.25549  0.63888  0.64263  1.0000
  Sn  Sn1114    1.0  0.14286  0.63428  0.54167  1.0000
  Sn  Sn1115    1.0  0.14286  0.53238  0.62500  1.0000
  Sn  Sn1116    1.0  0.21429  0.55095  0.54167  1.0000
  Sn  Sn1117    1.0  0.21429  0.61572  0.62500  1.0000
  Sn  Sn1118    1.0  0.19881  0.52547  0.75557  1.0000
  Sn  Sn1119    1.0  0.22976  0.64120  0.74443  1.0000
  Sn  Sn1120    1.0  0.22976  0.52547  0.82777  1.0000
  Sn  Sn1121    1.0  0.19881  0.64120  0.67223  1.0000
  Sn  Sn1122    1.0  0.27024  0.60880  0.75557  1.0000
  Sn  Sn1123    1.0  0.15833  0.55787  0.74443  1.0000
  Sn  Sn1124    1.0  0.15833  0.60880  0.82777  1.0000
  Sn  Sn1125    1.0  0.27024  0.55787  0.67223  1.0000
  Sn  Sn1126    1.0  0.18406  0.61112  0.72597  1.0000
  Sn  Sn1127    1.0  0.24451  0.55555  0.77403  1.0000
  Sn  Sn1128    1.0  0.24451  0.61112  0.69070  1.0000
  Sn  Sn1129    1.0  0.18406  0.55555  0.80930  1.0000
  Sn  Sn1130    1.0  0.25549  0.52778  0.72597  1.0000
  Sn  Sn1131    1.0  0.17309  0.63888  0.77403  1.0000
  Sn  Sn1132    1.0  0.17309  0.52778  0.69070  1.0000
  Sn  Sn1133    1.0  0.25549  0.63888  0.80930  1.0000
  Sn  Sn1134    1.0  0.14286  0.63428  0.70833  1.0000
  Sn  Sn1135    1.0  0.14286  0.53238  0.79167  1.0000
  Sn  Sn1136    1.0  0.21429  0.55095  0.70833  1.0000
  Sn  Sn1137    1.0  0.21429  0.61572  0.79167  1.0000
  Sn  Sn1138    1.0  0.19881  0.52547  0.92223  1.0000
  Sn  Sn1139    1.0  0.22976  0.64120  0.91110  1.0000
  Sn  Sn1140    1.0  0.22976  0.52547  0.99443  1.0000
  Sn  Sn1141    1.0  0.19881  0.64120  0.83890  1.0000
  Sn  Sn1142    1.0  0.27024  0.60880  0.92223  1.0000
  Sn  Sn1143    1.0  0.15833  0.55787  0.91110  1.0000
  Sn  Sn1144    1.0  0.15833  0.60880  0.99443  1.0000
  Sn  Sn1145    1.0  0.27024  0.55787  0.83890  1.0000
  Sn  Sn1146    1.0  0.18406  0.61112  0.89263  1.0000
  Sn  Sn1147    1.0  0.24451  0.61112  0.85737  1.0000
  Sn  Sn1148    1.0  0.18406  0.55555  0.97597  1.0000
  Sn  Sn1149    1.0  0.25549  0.52778  0.89263  1.0000
  Sn  Sn1150    1.0  0.17309  0.63888  0.94070  1.0000
  Sn  Sn1151    1.0  0.17309  0.52778  0.85737  1.0000
  Sn  Sn1152    1.0  0.25549  0.63888  0.97597  1.0000
  Sn  Sn1153    1.0  0.14286  0.63428  0.87500  1.0000
  Sn  Sn1154    1.0  0.14286  0.53238  0.95833  1.0000
  Sn  Sn1155    1.0  0.21429  0.55095  0.87500  1.0000
  Sn  Sn1156    1.0  0.21429  0.61572  0.95833  1.0000
  Sn  Sn1157    1.0  0.19881  0.69213  0.08890  1.0000
  Sn  Sn1158    1.0  0.22976  0.80787  0.07777  1.0000
  Sn  Sn1159    1.0  0.22976  0.69213  0.16110  1.0000
  Sn  Sn1160    1.0  0.19881  0.80787  0.00557  1.0000
  Sn  Sn1161    1.0  0.27024  0.77547  0.08890  1.0000
  Sn  Sn1162    1.0  0.15833  0.72453  0.07777  1.0000
  Sn  Sn1163    1.0  0.15833  0.77547  0.16110  1.0000
  Sn  Sn1164    1.0  0.27024  0.72453  0.00557  1.0000
  Sn  Sn1165    1.0  0.18406  0.77778  0.05930  1.0000
  Sn  Sn1166    1.0  0.24451  0.72222  0.10737  1.0000
  Sn  Sn1167    1.0  0.24451  0.77778  0.02403  1.0000
  Sn  Sn1168    1.0  0.18406  0.72222  0.14263  1.0000
  Sn  Sn1169    1.0  0.25549  0.69445  0.05930  1.0000
  Sn  Sn1170    1.0  0.17309  0.80555  0.10737  1.0000
  Sn  Sn1171    1.0  0.17309  0.69445  0.02403  1.0000
  Sn  Sn1172    1.0  0.25549  0.80555  0.14263  1.0000
  Sn  Sn1173    1.0  0.14286  0.80095  0.04167  1.0000
  Sn  Sn1174    1.0  0.14286  0.69905  0.12500  1.0000
  Sn  Sn1175    1.0  0.21429  0.71762  0.04167  1.0000
  Sn  Sn1176    1.0  0.21429  0.78238  0.12500  1.0000
  Sn  Sn1177    1.0  0.19881  0.69213  0.25557  1.0000
  Sn  Sn1178    1.0  0.22976  0.80787  0.24443  1.0000
  Sn  Sn1179    1.0  0.19881  0.80787  0.17223  1.0000
  Sn  Sn1180    1.0  0.27024  0.77547  0.25557  1.0000
  Sn  Sn1181    1.0  0.15833  0.72453  0.24443  1.0000
  Sn  Sn1182    1.0  0.15833  0.77547  0.32777  1.0000
  Sn  Sn1183    1.0  0.27024  0.72453  0.17223  1.0000
  Sn  Sn1184    1.0  0.18406  0.77778  0.22597  1.0000
  Sn  Sn1185    1.0  0.24451  0.72222  0.27403  1.0000
  Sn  Sn1186    1.0  0.24451  0.77778  0.19070  1.0000
  Sn  Sn1187    1.0  0.18406  0.72222  0.30930  1.0000
  Sn  Sn1188    1.0  0.25549  0.69445  0.22597  1.0000
  Sn  Sn1189    1.0  0.17309  0.80555  0.27403  1.0000
  Sn  Sn1190    1.0  0.17309  0.69445  0.19070  1.0000
  Sn  Sn1191    1.0  0.25549  0.80555  0.30930  1.0000
  Sn  Sn1192    1.0  0.14286  0.80095  0.20833  1.0000
  Sn  Sn1193    1.0  0.21429  0.71762  0.20833  1.0000
  Sn  Sn1194    1.0  0.21429  0.78238  0.29167  1.0000
  Sn  Sn1195    1.0  0.19881  0.69213  0.42223  1.0000
  Sn  Sn1196    1.0  0.22976  0.80787  0.41110  1.0000
  Sn  Sn1197    1.0  0.22976  0.69213  0.49443  1.0000
  Sn  Sn1198    1.0  0.19881  0.80787  0.33890  1.0000
  Sn  Sn1199    1.0  0.27024  0.77547  0.42223  1.0000
  Sn  Sn1200    1.0  0.15833  0.72453  0.41110  1.0000
  Sn  Sn1201    1.0  0.15833  0.77547  0.49443  1.0000
  Sn  Sn1202    1.0  0.27024  0.72453  0.33890  1.0000
  Sn  Sn1203    1.0  0.18406  0.77778  0.39263  1.0000
  Sn  Sn1204    1.0  0.24451  0.72222  0.44070  1.0000
  Sn  Sn1205    1.0  0.24451  0.77778  0.35737  1.0000
  Sn  Sn1206    1.0  0.18406  0.72222  0.47597  1.0000
  Sn  Sn1207    1.0  0.17309  0.80555  0.44070  1.0000
  Sn  Sn1208    1.0  0.17309  0.69445  0.35737  1.0000
  Sn  Sn1209    1.0  0.25549  0.80555  0.47597  1.0000
  Sn  Sn1210    1.0  0.14286  0.80095  0.37500  1.0000
  Sn  Sn1211    1.0  0.14286  0.69905  0.45833  1.0000
  Sn  Sn1212    1.0  0.21429  0.71762  0.37500  1.0000
  Sn  Sn1213    1.0  0.21429  0.78238  0.45833  1.0000
  Sn  Sn1214    1.0  0.19881  0.69213  0.58890  1.0000
  Sn  Sn1215    1.0  0.22976  0.80787  0.57777  1.0000
  Sn  Sn1216    1.0  0.22976  0.69213  0.66110  1.0000
  Sn  Sn1217    1.0  0.19881  0.80787  0.50557  1.0000
  Sn  Sn1218    1.0  0.27024  0.77547  0.58890  1.0000
  Sn  Sn1219    1.0  0.15833  0.72453  0.57777  1.0000
  Sn  Sn1220    1.0  0.15833  0.77547  0.66110  1.0000
  Sn  Sn1221    1.0  0.27024  0.72453  0.50557  1.0000
  Sn  Sn1222    1.0  0.18406  0.77778  0.55930  1.0000
  Sn  Sn1223    1.0  0.24451  0.72222  0.60737  1.0000
  Sn  Sn1224    1.0  0.24451  0.77778  0.52403  1.0000
  Sn  Sn1225    1.0  0.18406  0.72222  0.64263  1.0000
  Sn  Sn1226    1.0  0.25549  0.69445  0.55930  1.0000
  Sn  Sn1227    1.0  0.17309  0.80555  0.60737  1.0000
  Sn  Sn1228    1.0  0.17309  0.69445  0.52403  1.0000
  Sn  Sn1229    1.0  0.25549  0.80555  0.64263  1.0000
  Sn  Sn1230    1.0  0.14286  0.80095  0.54167  1.0000
  Sn  Sn1231    1.0  0.14286  0.69905  0.62500  1.0000
  Sn  Sn1232    1.0  0.21429  0.71762  0.54167  1.0000
  Sn  Sn1233    1.0  0.21429  0.78238  0.62500  1.0000
  Sn  Sn1234    1.0  0.19881  0.69213  0.75557  1.0000
  Sn  Sn1235    1.0  0.22976  0.80787  0.74443  1.0000
  Sn  Sn1236    1.0  0.22976  0.69213  0.82777  1.0000
  Sn  Sn1237    1.0  0.19881  0.80787  0.67223  1.0000
  Sn  Sn1238    1.0  0.27024  0.77547  0.75557  1.0000
  Sn  Sn1239    1.0  0.15833  0.77547  0.82777  1.0000
  Sn  Sn1240    1.0  0.18406  0.77778  0.72597  1.0000
  Sn  Sn1241    1.0  0.24451  0.72222  0.77403  1.0000
  Sn  Sn1242    1.0  0.18406  0.72222  0.80930  1.0000
  Sn  Sn1243    1.0  0.25549  0.69445  0.72597  1.0000
  Sn  Sn1244    1.0  0.17309  0.80555  0.77403  1.0000
  Sn  Sn1245    1.0  0.17309  0.69445  0.69070  1.0000
  Sn  Sn1246    1.0  0.25549  0.80555  0.80930  1.0000
  Sn  Sn1247    1.0  0.14286  0.80095  0.70833  1.0000
  Sn  Sn1248    1.0  0.14286  0.69905  0.79167  1.0000
  Sn  Sn1249    1.0  0.21429  0.71762  0.70833  1.0000
  Sn  Sn1250    1.0  0.21429  0.78238  0.79167  1.0000
  Sn  Sn1251    1.0  0.19881  0.69213  0.92223  1.0000
  Sn  Sn1252    1.0  0.22976  0.80787  0.91110  1.0000
  Sn  Sn1253    1.0  0.22976  0.69213  0.99443  1.0000
  Sn  Sn1254    1.0  0.19881  0.80787  0.83890  1.0000
  Sn  Sn1255    1.0  0.27024  0.77547  0.92223  1.0000
  Sn  Sn1256    1.0  0.15833  0.72453  0.91110  1.0000
  Sn  Sn1257    1.0  0.15833  0.77547  0.99443  1.0000
  Sn  Sn1258    1.0  0.27024  0.72453  0.83890  1.0000
  Sn  Sn1259    1.0  0.18406  0.77778  0.89263  1.0000
  Sn  Sn1260    1.0  0.24451  0.72222  0.94070  1.0000
  Sn  Sn1261    1.0  0.24451  0.77778  0.85737  1.0000
  Sn  Sn1262    1.0  0.18406  0.72222  0.97597  1.0000
  Sn  Sn1263    1.0  0.25549  0.69445  0.89263  1.0000
  Sn  Sn1264    1.0  0.17309  0.80555  0.94070  1.0000
  Sn  Sn1265    1.0  0.17309  0.69445  0.85737  1.0000
  Sn  Sn1266    1.0  0.25549  0.80555  0.97597  1.0000
  Sn  Sn1267    1.0  0.14286  0.80095  0.87500  1.0000
  Sn  Sn1268    1.0  0.14286  0.69905  0.95833  1.0000
  Sn  Sn1269    1.0  0.21429  0.71762  0.87500  1.0000
  Sn  Sn1270    1.0  0.21429  0.78238  0.95833  1.0000
  Sn  Sn1271    1.0  0.19881  0.85880  0.08890  1.0000
  Sn  Sn1272    1.0  0.22976  0.97453  0.07777  1.0000
  Sn  Sn1273    1.0  0.22976  0.85880  0.16110  1.0000
  Sn  Sn1274    1.0  0.19881  0.97453  0.00557  1.0000
  Sn  Sn1275    1.0  0.27024  0.94213  0.08890  1.0000
  Sn  Sn1276    1.0  0.15833  0.89120  0.07777  1.0000
  Sn  Sn1277    1.0  0.15833  0.94213  0.16110  1.0000
  Sn  Sn1278    1.0  0.27024  0.89120  0.00557  1.0000
  Sn  Sn1279    1.0  0.18406  0.94445  0.05930  1.0000
  Sn  Sn1280    1.0  0.24451  0.88888  0.10737  1.0000
  Sn  Sn1281    1.0  0.24451  0.94445  0.02403  1.0000
  Sn  Sn1282    1.0  0.18406  0.88888  0.14263  1.0000
  Sn  Sn1283    1.0  0.25549  0.86112  0.05930  1.0000
  Sn  Sn1284    1.0  0.17309  0.97222  0.10737  1.0000
  Sn  Sn1285    1.0  0.17309  0.86112  0.02403  1.0000
  Sn  Sn1286    1.0  0.25549  0.97222  0.14263  1.0000
  Sn  Sn1287    1.0  0.14286  0.96762  0.04167  1.0000
  Sn  Sn1288    1.0  0.14286  0.86572  0.12500  1.0000
  Sn  Sn1289    1.0  0.21429  0.88428  0.04167  1.0000
  Sn  Sn1290    1.0  0.21429  0.94905  0.12500  1.0000
  Sn  Sn1291    1.0  0.19881  0.85880  0.25557  1.0000
  Sn  Sn1292    1.0  0.22976  0.97453  0.24443  1.0000
  Sn  Sn1293    1.0  0.22976  0.85880  0.32777  1.0000
  Sn  Sn1294    1.0  0.19881  0.97453  0.17223  1.0000
  Sn  Sn1295    1.0  0.27024  0.94213  0.25557  1.0000
  Sn  Sn1296    1.0  0.15833  0.89120  0.24443  1.0000
  Sn  Sn1297    1.0  0.15833  0.94213  0.32777  1.0000
  Sn  Sn1298    1.0  0.27024  0.89120  0.17223  1.0000
  Sn  Sn1299    1.0  0.18406  0.94445  0.22597  1.0000
  Sn  Sn1300    1.0  0.24451  0.88888  0.27403  1.0000
  Sn  Sn1301    1.0  0.24451  0.94445  0.19070  1.0000
  Sn  Sn1302    1.0  0.18406  0.88888  0.30930  1.0000
  Sn  Sn1303    1.0  0.25549  0.86112  0.22597  1.0000
  Sn  Sn1304    1.0  0.17309  0.97222  0.27403  1.0000
  Sn  Sn1305    1.0  0.17309  0.86112  0.19070  1.0000
  Sn  Sn1306    1.0  0.25549  0.97222  0.30930  1.0000
  Sn  Sn1307    1.0  0.14286  0.96762  0.20833  1.0000
  Sn  Sn1308    1.0  0.14286  0.86572  0.29167  1.0000
  Sn  Sn1309    1.0  0.21429  0.88428  0.20833  1.0000
  Sn  Sn1310    1.0  0.21429  0.94905  0.29167  1.0000
  Sn  Sn1311    1.0  0.19881  0.85880  0.42223  1.0000
  Sn  Sn1312    1.0  0.22976  0.97453  0.41110  1.0000
  Sn  Sn1313    1.0  0.22976  0.85880  0.49443  1.0000
  Sn  Sn1314    1.0  0.19881  0.97453  0.33890  1.0000
  Sn  Sn1315    1.0  0.27024  0.94213  0.42223  1.0000
  Sn  Sn1316    1.0  0.15833  0.89120  0.41110  1.0000
  Sn  Sn1317    1.0  0.15833  0.94213  0.49443  1.0000
  Sn  Sn1318    1.0  0.27024  0.89120  0.33890  1.0000
  Sn  Sn1319    1.0  0.18406  0.94445  0.39263  1.0000
  Sn  Sn1320    1.0  0.24451  0.88888  0.44070  1.0000
  Sn  Sn1321    1.0  0.24451  0.94445  0.35737  1.0000
  Sn  Sn1322    1.0  0.18406  0.88888  0.47597  1.0000
  Sn  Sn1323    1.0  0.25549  0.86112  0.39263  1.0000
  Sn  Sn1324    1.0  0.17309  0.97222  0.44070  1.0000
  Sn  Sn1325    1.0  0.17309  0.86112  0.35737  1.0000
  Sn  Sn1326    1.0  0.25549  0.97222  0.47597  1.0000
  Sn  Sn1327    1.0  0.14286  0.96762  0.37500  1.0000
  Sn  Sn1328    1.0  0.14286  0.86572  0.45833  1.0000
  Sn  Sn1329    1.0  0.21429  0.88428  0.37500  1.0000
  Sn  Sn1330    1.0  0.21429  0.94905  0.45833  1.0000
  Sn  Sn1331    1.0  0.19881  0.85880  0.58890  1.0000
  Sn  Sn1332    1.0  0.22976  0.97453  0.57777  1.0000
  Sn  Sn1333    1.0  0.22976  0.85880  0.66110  1.0000
  Sn  Sn1334    1.0  0.19881  0.97453  0.50557  1.0000
  Sn  Sn1335    1.0  0.27024  0.94213  0.58890  1.0000
  Sn  Sn1336    1.0  0.15833  0.89120  0.57777  1.0000
  Sn  Sn1337    1.0  0.15833  0.94213  0.66110  1.0000
  Sn  Sn1338    1.0  0.27024  0.89120  0.50557  1.0000
  Sn  Sn1339    1.0  0.18406  0.94445  0.55930  1.0000
  Sn  Sn1340    1.0  0.24451  0.88888  0.60737  1.0000
  Sn  Sn1341    1.0  0.24451  0.94445  0.52403  1.0000
  Sn  Sn1342    1.0  0.18406  0.88888  0.64263  1.0000
  Sn  Sn1343    1.0  0.25549  0.86112  0.55930  1.0000
  Sn  Sn1344    1.0  0.17309  0.97222  0.60737  1.0000
  Sn  Sn1345    1.0  0.17309  0.86112  0.52403  1.0000
  Sn  Sn1346    1.0  0.25549  0.97222  0.64263  1.0000
  Sn  Sn1347    1.0  0.14286  0.96762  0.54167  1.0000
  Sn  Sn1348    1.0  0.14286  0.86572  0.62500  1.0000
  Sn  Sn1349    1.0  0.21429  0.94905  0.62500  1.0000
  Sn  Sn1350    1.0  0.19881  0.85880  0.75557  1.0000
  Sn  Sn1351    1.0  0.22976  0.97453  0.74443  1.0000
  Sn  Sn1352    1.0  0.22976  0.85880  0.82777  1.0000
  Sn  Sn1353    1.0  0.19881  0.97453  0.67223  1.0000
  Sn  Sn1354    1.0  0.27024  0.94213  0.75557  1.0000
  Sn  Sn1355    1.0  0.15833  0.89120  0.74443  1.0000
  Sn  Sn1356    1.0  0.15833  0.94213  0.82777  1.0000
  Sn  Sn1357    1.0  0.27024  0.89120  0.67223  1.0000
  Sn  Sn1358    1.0  0.18406  0.94445  0.72597  1.0000
  Sn  Sn1359    1.0  0.24451  0.88888  0.77403  1.0000
  Sn  Sn1360    1.0  0.24451  0.94445  0.69070  1.0000
  Sn  Sn1361    1.0  0.18406  0.88888  0.80930  1.0000
  Sn  Sn1362    1.0  0.25549  0.86112  0.72597  1.0000
  Sn  Sn1363    1.0  0.17309  0.97222  0.77403  1.0000
  Sn  Sn1364    1.0  0.17309  0.86112  0.69070  1.0000
  Sn  Sn1365    1.0  0.25549  0.97222  0.80930  1.0000
  Sn  Sn1366    1.0  0.14286  0.96762  0.70833  1.0000
  Sn  Sn1367    1.0  0.14286  0.86572  0.79167  1.0000
  Sn  Sn1368    1.0  0.21429  0.88428  0.70833  1.0000
  Sn  Sn1369    1.0  0.21429  0.94905  0.79167  1.0000
  Sn  Sn1370    1.0  0.19881  0.85880  0.92223  1.0000
  Sn  Sn1371    1.0  0.22976  0.97453  0.91110  1.0000
  Sn  Sn1372    1.0  0.22976  0.85880  0.99443  1.0000
  Sn  Sn1373    1.0  0.19881  0.97453  0.83890  1.0000
  Sn  Sn1374    1.0  0.27024  0.94213  0.92223  1.0000
  Sn  Sn1375    1.0  0.15833  0.89120  0.91110  1.0000
  Sn  Sn1376    1.0  0.15833  0.94213  0.99443  1.0000
  Sn  Sn1377    1.0  0.27024  0.89120  0.83890  1.0000
  Sn  Sn1378    1.0  0.18406  0.94445  0.89263  1.0000
  Sn  Sn1379    1.0  0.24451  0.88888  0.94070  1.0000
  Sn  Sn1380    1.0  0.24451  0.94445  0.85737  1.0000
  Sn  Sn1381    1.0  0.18406  0.88888  0.97597  1.0000
  Sn  Sn1382    1.0  0.25549  0.86112  0.89263  1.0000
  Sn  Sn1383    1.0  0.17309  0.97222  0.94070  1.0000
  Sn  Sn1384    1.0  0.17309  0.86112  0.85737  1.0000
  Sn  Sn1385    1.0  0.25549  0.97222  0.97597  1.0000
  Sn  Sn1386    1.0  0.14286  0.96762  0.87500  1.0000
  Sn  Sn1387    1.0  0.14286  0.86572  0.95833  1.0000
  Sn  Sn1388    1.0  0.21429  0.88428  0.87500  1.0000
  Sn  Sn1389    1.0  0.21429  0.94905  0.95833  1.0000
  Sn  Sn1390    1.0  0.34167  0.02547  0.08890  1.0000
  Sn  Sn1391    1.0  0.37261  0.14120  0.07777  1.0000
  Sn  Sn1392    1.0  0.37261  0.02547  0.16110  1.0000
  Sn  Sn1393    1.0  0.34167  0.14120  0.00557  1.0000
  Sn  Sn1394    1.0  0.41310  0.10880  0.08890  1.0000
  Sn  Sn1395    1.0  0.30119  0.05787  0.07777  1.0000
  Sn  Sn1396    1.0  0.30119  0.10880  0.16110  1.0000
  Sn  Sn1397    1.0  0.41310  0.05787  0.00557  1.0000
  Sn  Sn1398    1.0  0.32691  0.11112  0.05930  1.0000
  Sn  Sn1399    1.0  0.38737  0.05555  0.10737  1.0000
  Sn  Sn1400    1.0  0.38737  0.11112  0.02403  1.0000
  Sn  Sn1401    1.0  0.32691  0.05555  0.14263  1.0000
  Sn  Sn1402    1.0  0.39834  0.02778  0.05930  1.0000
  Sn  Sn1403    1.0  0.31594  0.13888  0.10737  1.0000
  Sn  Sn1404    1.0  0.31594  0.02778  0.02403  1.0000
  Sn  Sn1405    1.0  0.39834  0.13888  0.14263  1.0000
  Sn  Sn1406    1.0  0.28571  0.13428  0.04167  1.0000
  Sn  Sn1407    1.0  0.28571  0.03238  0.12500  1.0000
  Sn  Sn1408    1.0  0.35714  0.05095  0.04167  1.0000
  Sn  Sn1409    1.0  0.35714  0.11572  0.12500  1.0000
  Sn  Sn1410    1.0  0.34167  0.02547  0.25557  1.0000
  Sn  Sn1411    1.0  0.37261  0.14120  0.24443  1.0000
  Sn  Sn1412    1.0  0.37261  0.02547  0.32777  1.0000
  Sn  Sn1413    1.0  0.34167  0.14120  0.17223  1.0000
  Sn  Sn1414    1.0  0.41310  0.10880  0.25557  1.0000
  Sn  Sn1415    1.0  0.30119  0.05787  0.24443  1.0000
  Sn  Sn1416    1.0  0.30119  0.10880  0.32777  1.0000
  Sn  Sn1417    1.0  0.41310  0.05787  0.17223  1.0000
  Sn  Sn1418    1.0  0.32691  0.11112  0.22597  1.0000
  Sn  Sn1419    1.0  0.38737  0.05555  0.27403  1.0000
  Sn  Sn1420    1.0  0.38737  0.11112  0.19070  1.0000
  Sn  Sn1421    1.0  0.32691  0.05555  0.30930  1.0000
  Sn  Sn1422    1.0  0.39834  0.02778  0.22597  1.0000
  Sn  Sn1423    1.0  0.31594  0.13888  0.27403  1.0000
  Sn  Sn1424    1.0  0.31594  0.02778  0.19070  1.0000
  Sn  Sn1425    1.0  0.39834  0.13888  0.30930  1.0000
  Sn  Sn1426    1.0  0.28571  0.13428  0.20833  1.0000
  Sn  Sn1427    1.0  0.28571  0.03238  0.29167  1.0000
  Sn  Sn1428    1.0  0.35714  0.05095  0.20833  1.0000
  Sn  Sn1429    1.0  0.35714  0.11572  0.29167  1.0000
  Sn  Sn1430    1.0  0.34167  0.02547  0.42223  1.0000
  Sn  Sn1431    1.0  0.37261  0.14120  0.41110  1.0000
  Sn  Sn1432    1.0  0.37261  0.02547  0.49443  1.0000
  Sn  Sn1433    1.0  0.34167  0.14120  0.33890  1.0000
  Sn  Sn1434    1.0  0.41310  0.10880  0.42223  1.0000
  Sn  Sn1435    1.0  0.30119  0.05787  0.41110  1.0000
  Sn  Sn1436    1.0  0.30119  0.10880  0.49443  1.0000
  Sn  Sn1437    1.0  0.41310  0.05787  0.33890  1.0000
  Sn  Sn1438    1.0  0.32691  0.11112  0.39263  1.0000
  Sn  Sn1439    1.0  0.38737  0.05555  0.44070  1.0000
  Sn  Sn1440    1.0  0.38737  0.11112  0.35737  1.0000
  Sn  Sn1441    1.0  0.32691  0.05555  0.47597  1.0000
  Sn  Sn1442    1.0  0.39834  0.02778  0.39263  1.0000
  Sn  Sn1443    1.0  0.31594  0.13888  0.44070  1.0000
  Sn  Sn1444    1.0  0.31594  0.02778  0.35737  1.0000
  Sn  Sn1445    1.0  0.39834  0.13888  0.47597  1.0000
  Sn  Sn1446    1.0  0.28571  0.13428  0.37500  1.0000
  Sn  Sn1447    1.0  0.28571  0.03238  0.45833  1.0000
  Sn  Sn1448    1.0  0.35714  0.05095  0.37500  1.0000
  Sn  Sn1449    1.0  0.35714  0.11572  0.45833  1.0000
  Sn  Sn1450    1.0  0.34167  0.02547  0.58890  1.0000
  Sn  Sn1451    1.0  0.37261  0.14120  0.57777  1.0000
  Sn  Sn1452    1.0  0.37261  0.02547  0.66110  1.0000
  Sn  Sn1453    1.0  0.34167  0.14120  0.50557  1.0000
  Sn  Sn1454    1.0  0.41310  0.10880  0.58890  1.0000
  Sn  Sn1455    1.0  0.30119  0.05787  0.57777  1.0000
  Sn  Sn1456    1.0  0.30119  0.10880  0.66110  1.0000
  Sn  Sn1457    1.0  0.41310  0.05787  0.50557  1.0000
  Sn  Sn1458    1.0  0.32691  0.11112  0.55930  1.0000
  Sn  Sn1459    1.0  0.38737  0.05555  0.60737  1.0000
  Sn  Sn1460    1.0  0.38737  0.11112  0.52403  1.0000
  Sn  Sn1461    1.0  0.32691  0.05555  0.64263  1.0000
  Sn  Sn1462    1.0  0.39834  0.02778  0.55930  1.0000
  Sn  Sn1463    1.0  0.31594  0.13888  0.60737  1.0000
  Sn  Sn1464    1.0  0.31594  0.02778  0.52403  1.0000
  Sn  Sn1465    1.0  0.28571  0.13428  0.54167  1.0000
  Sn  Sn1466    1.0  0.28571  0.03238  0.62500  1.0000
  Sn  Sn1467    1.0  0.35714  0.05095  0.54167  1.0000
  Sn  Sn1468    1.0  0.35714  0.11572  0.62500  1.0000
  Sn  Sn1469    1.0  0.34167  0.02547  0.75557  1.0000
  Sn  Sn1470    1.0  0.37261  0.14120  0.74443  1.0000
  Sn  Sn1471    1.0  0.37261  0.02547  0.82777  1.0000
  Sn  Sn1472    1.0  0.34167  0.14120  0.67223  1.0000
  Sn  Sn1473    1.0  0.41310  0.10880  0.75557  1.0000
  Sn  Sn1474    1.0  0.30119  0.05787  0.74443  1.0000
  Sn  Sn1475    1.0  0.30119  0.10880  0.82777  1.0000
  Sn  Sn1476    1.0  0.41310  0.05787  0.67223  1.0000
  Sn  Sn1477    1.0  0.32691  0.11112  0.72597  1.0000
  Sn  Sn1478    1.0  0.38737  0.05555  0.77403  1.0000
  Sn  Sn1479    1.0  0.38737  0.11112  0.69070  1.0000
  Sn  Sn1480    1.0  0.32691  0.05555  0.80930  1.0000
  Sn  Sn1481    1.0  0.39834  0.02778  0.72597  1.0000
  Sn  Sn1482    1.0  0.31594  0.13888  0.77403  1.0000
  Sn  Sn1483    1.0  0.39834  0.13888  0.80930  1.0000
  Sn  Sn1484    1.0  0.28571  0.13428  0.70833  1.0000
  Sn  Sn1485    1.0  0.28571  0.03238  0.79167  1.0000
  Sn  Sn1486    1.0  0.35714  0.05095  0.70833  1.0000
  Sn  Sn1487    1.0  0.35714  0.11572  0.79167  1.0000
  Sn  Sn1488    1.0  0.34167  0.02547  0.92223  1.0000
  Sn  Sn1489    1.0  0.37261  0.14120  0.91110  1.0000
  Sn  Sn1490    1.0  0.37261  0.02547  0.99443  1.0000
  Sn  Sn1491    1.0  0.34167  0.14120  0.83890  1.0000
  Sn  Sn1492    1.0  0.41310  0.10880  0.92223  1.0000
  Sn  Sn1493    1.0  0.30119  0.05787  0.91110  1.0000
  Sn  Sn1494    1.0  0.30119  0.10880  0.99443  1.0000
  Sn  Sn1495    1.0  0.41310  0.05787  0.83890  1.0000
  Sn  Sn1496    1.0  0.32691  0.11112  0.89263  1.0000
  Sn  Sn1497    1.0  0.38737  0.05555  0.94070  1.0000
  Sn  Sn1498    1.0  0.38737  0.11112  0.85737  1.0000
  Sn  Sn1499    1.0  0.32691  0.05555  0.97597  1.0000
  Sn  Sn1500    1.0  0.39834  0.02778  0.89263  1.0000
  Sn  Sn1501    1.0  0.31594  0.13888  0.94070  1.0000
  Sn  Sn1502    1.0  0.31594  0.02778  0.85737  1.0000
  Sn  Sn1503    1.0  0.39834  0.13888  0.97597  1.0000
  Sn  Sn1504    1.0  0.28571  0.13428  0.87500  1.0000
  Sn  Sn1505    1.0  0.28571  0.03238  0.95833  1.0000
  Sn  Sn1506    1.0  0.35714  0.05095  0.87500  1.0000
  Sn  Sn1507    1.0  0.35714  0.11572  0.95833  1.0000
  Sn  Sn1508    1.0  0.34167  0.19213  0.08890  1.0000
  Sn  Sn1509    1.0  0.37261  0.30787  0.07777  1.0000
  Sn  Sn1510    1.0  0.37261  0.19213  0.16110  1.0000
  Sn  Sn1511    1.0  0.34167  0.30787  0.00557  1.0000
  Sn  Sn1512    1.0  0.41310  0.27547  0.08890  1.0000
  Sn  Sn1513    1.0  0.30119  0.22453  0.07777  1.0000
  Sn  Sn1514    1.0  0.30119  0.27547  0.16110  1.0000
  Sn  Sn1515    1.0  0.41310  0.22453  0.00557  1.0000
  Sn  Sn1516    1.0  0.32691  0.27778  0.05930  1.0000
  Sn  Sn1517    1.0  0.38737  0.22222  0.10737  1.0000
  Sn  Sn1518    1.0  0.38737  0.27778  0.02403  1.0000
  Sn  Sn1519    1.0  0.32691  0.22222  0.14263  1.0000
  Sn  Sn1520    1.0  0.39834  0.19445  0.05930  1.0000
  Sn  Sn1521    1.0  0.31594  0.30555  0.10737  1.0000
  Sn  Sn1522    1.0  0.31594  0.19445  0.02403  1.0000
  Sn  Sn1523    1.0  0.39834  0.30555  0.14263  1.0000
  Sn  Sn1524    1.0  0.28571  0.30095  0.04167  1.0000
  Sn  Sn1525    1.0  0.28571  0.19905  0.12500  1.0000
  Sn  Sn1526    1.0  0.35714  0.21762  0.04167  1.0000
  Sn  Sn1527    1.0  0.35714  0.28238  0.12500  1.0000
  Sn  Sn1528    1.0  0.34167  0.19213  0.25557  1.0000
  Sn  Sn1529    1.0  0.37261  0.30787  0.24443  1.0000
  Sn  Sn1530    1.0  0.37261  0.19213  0.32777  1.0000
  Sn  Sn1531    1.0  0.41310  0.27547  0.25557  1.0000
  Sn  Sn1532    1.0  0.30119  0.22453  0.24443  1.0000
  Sn  Sn1533    1.0  0.30119  0.27547  0.32777  1.0000
  Sn  Sn1534    1.0  0.41310  0.22453  0.17223  1.0000
  Sn  Sn1535    1.0  0.32691  0.27778  0.22597  1.0000
  Sn  Sn1536    1.0  0.38737  0.22222  0.27403  1.0000
  Sn  Sn1537    1.0  0.38737  0.27778  0.19070  1.0000
  Sn  Sn1538    1.0  0.32691  0.22222  0.30930  1.0000
  Sn  Sn1539    1.0  0.39834  0.19445  0.22597  1.0000
  Sn  Sn1540    1.0  0.31594  0.30555  0.27403  1.0000
  Sn  Sn1541    1.0  0.31594  0.19445  0.19070  1.0000
  Sn  Sn1542    1.0  0.39834  0.30555  0.30930  1.0000
  Sn  Sn1543    1.0  0.28571  0.30095  0.20833  1.0000
  Sn  Sn1544    1.0  0.28571  0.19905  0.29167  1.0000
  Sn  Sn1545    1.0  0.35714  0.21762  0.20833  1.0000
  Sn  Sn1546    1.0  0.35714  0.28238  0.29167  1.0000
  Sn  Sn1547    1.0  0.34167  0.19213  0.42223  1.0000
  Sn  Sn1548    1.0  0.37261  0.30787  0.41110  1.0000
  Sn  Sn1549    1.0  0.37261  0.19213  0.49443  1.0000
  Sn  Sn1550    1.0  0.34167  0.30787  0.33890  1.0000
  Sn  Sn1551    1.0  0.41310  0.27547  0.42223  1.0000
  Sn  Sn1552    1.0  0.30119  0.22453  0.41110  1.0000
  Sn  Sn1553    1.0  0.30119  0.27547  0.49443  1.0000
  Sn  Sn1554    1.0  0.41310  0.22453  0.33890  1.0000
  Sn  Sn1555    1.0  0.32691  0.27778  0.39263  1.0000
  Sn  Sn1556    1.0  0.38737  0.22222  0.44070  1.0000
  Sn  Sn1557    1.0  0.38737  0.27778  0.35737  1.0000
  Sn  Sn1558    1.0  0.32691  0.22222  0.47597  1.0000
  Sn  Sn1559    1.0  0.39834  0.19445  0.39263  1.0000
  Sn  Sn1560    1.0  0.31594  0.30555  0.44070  1.0000
  Sn  Sn1561    1.0  0.31594  0.19445  0.35737  1.0000
  Sn  Sn1562    1.0  0.39834  0.30555  0.47597  1.0000
  Sn  Sn1563    1.0  0.28571  0.19905  0.45833  1.0000
  Sn  Sn1564    1.0  0.35714  0.21762  0.37500  1.0000
  Sn  Sn1565    1.0  0.35714  0.28238  0.45833  1.0000
  Sn  Sn1566    1.0  0.34167  0.19213  0.58890  1.0000
  Sn  Sn1567    1.0  0.37261  0.30787  0.57777  1.0000
  Sn  Sn1568    1.0  0.37261  0.19213  0.66110  1.0000
  Sn  Sn1569    1.0  0.34167  0.30787  0.50557  1.0000
  Sn  Sn1570    1.0  0.41310  0.27547  0.58890  1.0000
  Sn  Sn1571    1.0  0.30119  0.22453  0.57777  1.0000
  Sn  Sn1572    1.0  0.30119  0.27547  0.66110  1.0000
  Sn  Sn1573    1.0  0.41310  0.22453  0.50557  1.0000
  Sn  Sn1574    1.0  0.32691  0.27778  0.55930  1.0000
  Sn  Sn1575    1.0  0.38737  0.22222  0.60737  1.0000
  Sn  Sn1576    1.0  0.38737  0.27778  0.52403  1.0000
  Sn  Sn1577    1.0  0.32691  0.22222  0.64263  1.0000
  Sn  Sn1578    1.0  0.39834  0.19445  0.55930  1.0000
  Sn  Sn1579    1.0  0.31594  0.30555  0.60737  1.0000
  Sn  Sn1580    1.0  0.31594  0.19445  0.52403  1.0000
  Sn  Sn1581    1.0  0.39834  0.30555  0.64263  1.0000
  Sn  Sn1582    1.0  0.28571  0.30095  0.54167  1.0000
  Sn  Sn1583    1.0  0.28571  0.19905  0.62500  1.0000
  Sn  Sn1584    1.0  0.35714  0.21762  0.54167  1.0000
  Sn  Sn1585    1.0  0.35714  0.28238  0.62500  1.0000
  Sn  Sn1586    1.0  0.34167  0.19213  0.75557  1.0000
  Sn  Sn1587    1.0  0.37261  0.30787  0.74443  1.0000
  Sn  Sn1588    1.0  0.37261  0.19213  0.82777  1.0000
  Sn  Sn1589    1.0  0.34167  0.30787  0.67223  1.0000
  Sn  Sn1590    1.0  0.41310  0.27547  0.75557  1.0000
  Sn  Sn1591    1.0  0.30119  0.22453  0.74443  1.0000
  Sn  Sn1592    1.0  0.30119  0.27547  0.82777  1.0000
  Sn  Sn1593    1.0  0.41310  0.22453  0.67223  1.0000
  Sn  Sn1594    1.0  0.32691  0.27778  0.72597  1.0000
  Sn  Sn1595    1.0  0.38737  0.22222  0.77403  1.0000
  Sn  Sn1596    1.0  0.38737  0.27778  0.69070  1.0000
  Sn  Sn1597    1.0  0.32691  0.22222  0.80930  1.0000
  Sn  Sn1598    1.0  0.39834  0.19445  0.72597  1.0000
  Sn  Sn1599    1.0  0.31594  0.30555  0.77403  1.0000
  Sn  Sn1600    1.0  0.31594  0.19445  0.69070  1.0000
  Sn  Sn1601    1.0  0.39834  0.30555  0.80930  1.0000
  Sn  Sn1602    1.0  0.28571  0.30095  0.70833  1.0000
  Sn  Sn1603    1.0  0.28571  0.19905  0.79167  1.0000
  Sn  Sn1604    1.0  0.35714  0.21762  0.70833  1.0000
  Sn  Sn1605    1.0  0.35714  0.28238  0.79167  1.0000
  Sn  Sn1606    1.0  0.34167  0.19213  0.92223  1.0000
  Sn  Sn1607    1.0  0.37261  0.30787  0.91110  1.0000
  Sn  Sn1608    1.0  0.37261  0.19213  0.99443  1.0000
  Sn  Sn1609    1.0  0.34167  0.30787  0.83890  1.0000
  Sn  Sn1610    1.0  0.41310  0.27547  0.92223  1.0000
  Sn  Sn1611    1.0  0.30119  0.22453  0.91110  1.0000
  Sn  Sn1612    1.0  0.30119  0.27547  0.99443  1.0000
  Sn  Sn1613    1.0  0.41310  0.22453  0.83890  1.0000
  Sn  Sn1614    1.0  0.32691  0.27778  0.89263  1.0000
  Sn  Sn1615    1.0  0.38737  0.22222  0.94070  1.0000
  Sn  Sn1616    1.0  0.38737  0.27778  0.85737  1.0000
  Sn  Sn1617    1.0  0.32691  0.22222  0.97597  1.0000
  Sn  Sn1618    1.0  0.39834  0.19445  0.89263  1.0000
  Sn  Sn1619    1.0  0.31594  0.30555  0.94070  1.0000
  Sn  Sn1620    1.0  0.31594  0.19445  0.85737  1.0000
  Sn  Sn1621    1.0  0.39834  0.30555  0.97597  1.0000
  Sn  Sn1622    1.0  0.28571  0.30095  0.87500  1.0000
  Sn  Sn1623    1.0  0.28571  0.19905  0.95833  1.0000
  Sn  Sn1624    1.0  0.35714  0.21762  0.87500  1.0000
  Sn  Sn1625    1.0  0.35714  0.28238  0.95833  1.0000
  Sn  Sn1626    1.0  0.34167  0.35880  0.08890  1.0000
  Sn  Sn1627    1.0  0.37261  0.47453  0.07777  1.0000
  Sn  Sn1628    1.0  0.37261  0.35880  0.16110  1.0000
  Sn  Sn1629    1.0  0.34167  0.47453  0.00557  1.0000
  Sn  Sn1630    1.0  0.41310  0.44213  0.08890  1.0000
  Sn  Sn1631    1.0  0.30119  0.39120  0.07777  1.0000
  Sn  Sn1632    1.0  0.30119  0.44213  0.16110  1.0000
  Sn  Sn1633    1.0  0.41310  0.39120  0.00557  1.0000
  Sn  Sn1634    1.0  0.32691  0.44445  0.05930  1.0000
  Sn  Sn1635    1.0  0.38737  0.38888  0.10737  1.0000
  Sn  Sn1636    1.0  0.38737  0.44445  0.02403  1.0000
  Sn  Sn1637    1.0  0.32691  0.38888  0.14263  1.0000
  Sn  Sn1638    1.0  0.39834  0.36112  0.05930  1.0000
  Sn  Sn1639    1.0  0.31594  0.47222  0.10737  1.0000
  Sn  Sn1640    1.0  0.31594  0.36112  0.02403  1.0000
  Sn  Sn1641    1.0  0.39834  0.47222  0.14263  1.0000
  Sn  Sn1642    1.0  0.28571  0.46762  0.04167  1.0000
  Sn  Sn1643    1.0  0.28571  0.36572  0.12500  1.0000
  Sn  Sn1644    1.0  0.35714  0.38428  0.04167  1.0000
  Sn  Sn1645    1.0  0.35714  0.44905  0.12500  1.0000
  Sn  Sn1646    1.0  0.34167  0.35880  0.25557  1.0000
  Sn  Sn1647    1.0  0.37261  0.47453  0.24443  1.0000
  Sn  Sn1648    1.0  0.37261  0.35880  0.32777  1.0000
  Sn  Sn1649    1.0  0.34167  0.47453  0.17223  1.0000
  Sn  Sn1650    1.0  0.41310  0.44213  0.25557  1.0000
  Sn  Sn1651    1.0  0.30119  0.39120  0.24443  1.0000
  Sn  Sn1652    1.0  0.30119  0.44213  0.32777  1.0000
  Sn  Sn1653    1.0  0.41310  0.39120  0.17223  1.0000
  Sn  Sn1654    1.0  0.32691  0.44445  0.22597  1.0000
  Sn  Sn1655    1.0  0.38737  0.38888  0.27403  1.0000
  Sn  Sn1656    1.0  0.38737  0.44445  0.19070  1.0000
  Sn  Sn1657    1.0  0.32691  0.38888  0.30930  1.0000
  Sn  Sn1658    1.0  0.39834  0.36112  0.22597  1.0000
  Sn  Sn1659    1.0  0.31594  0.47222  0.27403  1.0000
  Sn  Sn1660    1.0  0.31594  0.36112  0.19070  1.0000
  Sn  Sn1661    1.0  0.39834  0.47222  0.30930  1.0000
  Sn  Sn1662    1.0  0.28571  0.46762  0.20833  1.0000
  Sn  Sn1663    1.0  0.28571  0.36572  0.29167  1.0000
  Sn  Sn1664    1.0  0.35714  0.38428  0.20833  1.0000
  Sn  Sn1665    1.0  0.35714  0.44905  0.29167  1.0000
  Sn  Sn1666    1.0  0.34167  0.35880  0.42223  1.0000
  Sn  Sn1667    1.0  0.37261  0.47453  0.41110  1.0000
  Sn  Sn1668    1.0  0.37261  0.35880  0.49443  1.0000
  Sn  Sn1669    1.0  0.34167  0.47453  0.33890  1.0000
  Sn  Sn1670    1.0  0.41310  0.44213  0.42223  1.0000
  Sn  Sn1671    1.0  0.30119  0.39120  0.41110  1.0000
  Sn  Sn1672    1.0  0.30119  0.44213  0.49443  1.0000
  Sn  Sn1673    1.0  0.41310  0.39120  0.33890  1.0000
  Sn  Sn1674    1.0  0.32691  0.44445  0.39263  1.0000
  Sn  Sn1675    1.0  0.38737  0.38888  0.44070  1.0000
  Sn  Sn1676    1.0  0.38737  0.44445  0.35737  1.0000
  Sn  Sn1677    1.0  0.32691  0.38888  0.47597  1.0000
  Sn  Sn1678    1.0  0.39834  0.36112  0.39263  1.0000
  Sn  Sn1679    1.0  0.31594  0.47222  0.44070  1.0000
  Sn  Sn1680    1.0  0.31594  0.36112  0.35737  1.0000
  Sn  Sn1681    1.0  0.39834  0.47222  0.47597  1.0000
  Sn  Sn1682    1.0  0.28571  0.46762  0.37500  1.0000
  Sn  Sn1683    1.0  0.28571  0.36572  0.45833  1.0000
  Sn  Sn1684    1.0  0.35714  0.38428  0.37500  1.0000
  Sn  Sn1685    1.0  0.35714  0.44905  0.45833  1.0000
  Sn  Sn1686    1.0  0.34167  0.35880  0.58890  1.0000
  Sn  Sn1687    1.0  0.37261  0.47453  0.57777  1.0000
  Sn  Sn1688    1.0  0.37261  0.35880  0.66110  1.0000
  Sn  Sn1689    1.0  0.34167  0.47453  0.50557  1.0000
  Sn  Sn1690    1.0  0.41310  0.44213  0.58890  1.0000
  Sn  Sn1691    1.0  0.30119  0.39120  0.57777  1.0000
  Sn  Sn1692    1.0  0.30119  0.44213  0.66110  1.0000
  Sn  Sn1693    1.0  0.41310  0.39120  0.50557  1.0000
  Sn  Sn1694    1.0  0.32691  0.44445  0.55930  1.0000
  Sn  Sn1695    1.0  0.38737  0.38888  0.60737  1.0000
  Sn  Sn1696    1.0  0.38737  0.44445  0.52403  1.0000
  Sn  Sn1697    1.0  0.32691  0.38888  0.64263  1.0000
  Sn  Sn1698    1.0  0.39834  0.36112  0.55930  1.0000
  Sn  Sn1699    1.0  0.31594  0.47222  0.60737  1.0000
  Sn  Sn1700    1.0  0.31594  0.36112  0.52403  1.0000
  Sn  Sn1701    1.0  0.39834  0.47222  0.64263  1.0000
  Sn  Sn1702    1.0  0.28571  0.46762  0.54167  1.0000
  Sn  Sn1703    1.0  0.28571  0.36572  0.62500  1.0000
  Sn  Sn1704    1.0  0.35714  0.38428  0.54167  1.0000
  Sn  Sn1705    1.0  0.35714  0.44905  0.62500  1.0000
  Sn  Sn1706    1.0  0.34167  0.35880  0.75557  1.0000
  Sn  Sn1707    1.0  0.37261  0.47453  0.74443  1.0000
  Sn  Sn1708    1.0  0.37261  0.35880  0.82777  1.0000
  Sn  Sn1709    1.0  0.34167  0.47453  0.67223  1.0000
  Sn  Sn1710    1.0  0.41310  0.44213  0.75557  1.0000
  Sn  Sn1711    1.0  0.30119  0.39120  0.74443  1.0000
  Sn  Sn1712    1.0  0.30119  0.44213  0.82777  1.0000
  Sn  Sn1713    1.0  0.41310  0.39120  0.67223  1.0000
  Sn  Sn1714    1.0  0.32691  0.44445  0.72597  1.0000
  Sn  Sn1715    1.0  0.38737  0.38888  0.77403  1.0000
  Sn  Sn1716    1.0  0.38737  0.44445  0.69070  1.0000
  Sn  Sn1717    1.0  0.32691  0.38888  0.80930  1.0000
  Sn  Sn1718    1.0  0.39834  0.36112  0.72597  1.0000
  Sn  Sn1719    1.0  0.31594  0.47222  0.77403  1.0000
  Sn  Sn1720    1.0  0.31594  0.36112  0.69070  1.0000
  Sn  Sn1721    1.0  0.39834  0.47222  0.80930  1.0000
  Sn  Sn1722    1.0  0.28571  0.46762  0.70833  1.0000
  Sn  Sn1723    1.0  0.28571  0.36572  0.79167  1.0000
  Sn  Sn1724    1.0  0.35714  0.38428  0.70833  1.0000
  Sn  Sn1725    1.0  0.35714  0.44905  0.79167  1.0000
  Sn  Sn1726    1.0  0.34167  0.35880  0.92223  1.0000
  Sn  Sn1727    1.0  0.37261  0.47453  0.91110  1.0000
  Sn  Sn1728    1.0  0.37261  0.35880  0.99443  1.0000
  Sn  Sn1729    1.0  0.34167  0.47453  0.83890  1.0000
  Sn  Sn1730    1.0  0.41310  0.44213  0.92223  1.0000
  Sn  Sn1731    1.0  0.30119  0.39120  0.91110  1.0000
  Sn  Sn1732    1.0  0.30119  0.44213  0.99443  1.0000
  Sn  Sn1733    1.0  0.41310  0.39120  0.83890  1.0000
  Sn  Sn1734    1.0  0.32691  0.44445  0.89263  1.0000
  Sn  Sn1735    1.0  0.38737  0.38888  0.94070  1.0000
  Sn  Sn1736    1.0  0.38737  0.44445  0.85737  1.0000
  Sn  Sn1737    1.0  0.39834  0.36112  0.89263  1.0000
  Sn  Sn1738    1.0  0.31594  0.47222  0.94070  1.0000
  Sn  Sn1739    1.0  0.31594  0.36112  0.85737  1.0000
  Sn  Sn1740    1.0  0.39834  0.47222  0.97597  1.0000
  Sn  Sn1741    1.0  0.28571  0.46762  0.87500  1.0000
  Sn  Sn1742    1.0  0.28571  0.36572  0.95833  1.0000
  Sn  Sn1743    1.0  0.35714  0.38428  0.87500  1.0000
  Sn  Sn1744    1.0  0.35714  0.44905  0.95833  1.0000
  Sn  Sn1745    1.0  0.34167  0.52547  0.08890  1.0000
  Sn  Sn1746    1.0  0.37261  0.64120  0.07777  1.0000
  Sn  Sn1747    1.0  0.37261  0.52547  0.16110  1.0000
  Sn  Sn1748    1.0  0.34167  0.64120  0.00557  1.0000
  Sn  Sn1749    1.0  0.41310  0.60880  0.08890  1.0000
  Sn  Sn1750    1.0  0.30119  0.55787  0.07777  1.0000
  Sn  Sn1751    1.0  0.30119  0.60880  0.16110  1.0000
  Sn  Sn1752    1.0  0.41310  0.55787  0.00557  1.0000
  Sn  Sn1753    1.0  0.32691  0.61112  0.05930  1.0000
  Sn  Sn1754    1.0  0.38737  0.55555  0.10737  1.0000
  Sn  Sn1755    1.0  0.38737  0.61112  0.02403  1.0000
  Sn  Sn1756    1.0  0.39834  0.52778  0.05930  1.0000
  Sn  Sn1757    1.0  0.31594  0.63888  0.10737  1.0000
  Sn  Sn1758    1.0  0.31594  0.52778  0.02403  1.0000
  Sn  Sn1759    1.0  0.39834  0.63888  0.14263  1.0000
  Sn  Sn1760    1.0  0.28571  0.63428  0.04167  1.0000
  Sn  Sn1761    1.0  0.28571  0.53238  0.12500  1.0000
  Sn  Sn1762    1.0  0.35714  0.55095  0.04167  1.0000
  Sn  Sn1763    1.0  0.35714  0.61572  0.12500  1.0000
  Sn  Sn1764    1.0  0.34167  0.52547  0.25557  1.0000
  Sn  Sn1765    1.0  0.37261  0.64120  0.24443  1.0000
  Sn  Sn1766    1.0  0.37261  0.52547  0.32777  1.0000
  Sn  Sn1767    1.0  0.34167  0.64120  0.17223  1.0000
  Sn  Sn1768    1.0  0.41310  0.60880  0.25557  1.0000
  Sn  Sn1769    1.0  0.30119  0.55787  0.24443  1.0000
  Sn  Sn1770    1.0  0.30119  0.60880  0.32777  1.0000
  Sn  Sn1771    1.0  0.41310  0.55787  0.17223  1.0000
  Sn  Sn1772    1.0  0.32691  0.61112  0.22597  1.0000
  Sn  Sn1773    1.0  0.38737  0.55555  0.27403  1.0000
  Sn  Sn1774    1.0  0.38737  0.61112  0.19070  1.0000
  Sn  Sn1775    1.0  0.32691  0.55555  0.30930  1.0000
  Sn  Sn1776    1.0  0.39834  0.52778  0.22597  1.0000
  Sn  Sn1777    1.0  0.31594  0.63888  0.27403  1.0000
  Sn  Sn1778    1.0  0.31594  0.52778  0.19070  1.0000
  Sn  Sn1779    1.0  0.39834  0.63888  0.30930  1.0000
  Sn  Sn1780    1.0  0.28571  0.63428  0.20833  1.0000
  Sn  Sn1781    1.0  0.28571  0.53238  0.29167  1.0000
  Sn  Sn1782    1.0  0.35714  0.55095  0.20833  1.0000
  Sn  Sn1783    1.0  0.35714  0.61572  0.29167  1.0000
  Sn  Sn1784    1.0  0.34167  0.52547  0.42223  1.0000
  Sn  Sn1785    1.0  0.37261  0.64120  0.41110  1.0000
  Sn  Sn1786    1.0  0.37261  0.52547  0.49443  1.0000
  Sn  Sn1787    1.0  0.41310  0.60880  0.42223  1.0000
  Sn  Sn1788    1.0  0.30119  0.60880  0.49443  1.0000
  Sn  Sn1789    1.0  0.41310  0.55787  0.33890  1.0000
  Sn  Sn1790    1.0  0.32691  0.61112  0.39263  1.0000
  Sn  Sn1791    1.0  0.38737  0.55555  0.44070  1.0000
  Sn  Sn1792    1.0  0.38737  0.61112  0.35737  1.0000
  Sn  Sn1793    1.0  0.32691  0.55555  0.47597  1.0000
  Sn  Sn1794    1.0  0.39834  0.52778  0.39263  1.0000
  Sn  Sn1795    1.0  0.31594  0.63888  0.44070  1.0000
  Sn  Sn1796    1.0  0.31594  0.52778  0.35737  1.0000
  Sn  Sn1797    1.0  0.39834  0.63888  0.47597  1.0000
  Sn  Sn1798    1.0  0.28571  0.63428  0.37500  1.0000
  Sn  Sn1799    1.0  0.28571  0.53238  0.45833  1.0000
  Sn  Sn1800    1.0  0.35714  0.61572  0.45833  1.0000
  Sn  Sn1801    1.0  0.34167  0.52547  0.58890  1.0000
  Sn  Sn1802    1.0  0.37261  0.64120  0.57777  1.0000
  Sn  Sn1803    1.0  0.37261  0.52547  0.66110  1.0000
  Sn  Sn1804    1.0  0.34167  0.64120  0.50557  1.0000
  Sn  Sn1805    1.0  0.41310  0.60880  0.58890  1.0000
  Sn  Sn1806    1.0  0.30119  0.55787  0.57777  1.0000
  Sn  Sn1807    1.0  0.30119  0.60880  0.66110  1.0000
  Sn  Sn1808    1.0  0.41310  0.55787  0.50557  1.0000
  Sn  Sn1809    1.0  0.32691  0.61112  0.55930  1.0000
  Sn  Sn1810    1.0  0.38737  0.55555  0.60737  1.0000
  Sn  Sn1811    1.0  0.38737  0.61112  0.52403  1.0000
  Sn  Sn1812    1.0  0.32691  0.55555  0.64263  1.0000
  Sn  Sn1813    1.0  0.39834  0.52778  0.55930  1.0000
  Sn  Sn1814    1.0  0.31594  0.63888  0.60737  1.0000
  Sn  Sn1815    1.0  0.31594  0.52778  0.52403  1.0000
  Sn  Sn1816    1.0  0.39834  0.63888  0.64263  1.0000
  Sn  Sn1817    1.0  0.28571  0.63428  0.54167  1.0000
  Sn  Sn1818    1.0  0.28571  0.53238  0.62500  1.0000
  Sn  Sn1819    1.0  0.35714  0.55095  0.54167  1.0000
  Sn  Sn1820    1.0  0.35714  0.61572  0.62500  1.0000
  Sn  Sn1821    1.0  0.34167  0.52547  0.75557  1.0000
  Sn  Sn1822    1.0  0.37261  0.64120  0.74443  1.0000
  Sn  Sn1823    1.0  0.37261  0.52547  0.82777  1.0000
  Sn  Sn1824    1.0  0.34167  0.64120  0.67223  1.0000
  Sn  Sn1825    1.0  0.41310  0.60880  0.75557  1.0000
  Sn  Sn1826    1.0  0.30119  0.55787  0.74443  1.0000
  Sn  Sn1827    1.0  0.30119  0.60880  0.82777  1.0000
  Sn  Sn1828    1.0  0.41310  0.55787  0.67223  1.0000
  Sn  Sn1829    1.0  0.32691  0.61112  0.72597  1.0000
  Sn  Sn1830    1.0  0.38737  0.55555  0.77403  1.0000
  Sn  Sn1831    1.0  0.38737  0.61112  0.69070  1.0000
  Sn  Sn1832    1.0  0.32691  0.55555  0.80930  1.0000
  Sn  Sn1833    1.0  0.39834  0.52778  0.72597  1.0000
  Sn  Sn1834    1.0  0.31594  0.63888  0.77403  1.0000
  Sn  Sn1835    1.0  0.31594  0.52778  0.69070  1.0000
  Sn  Sn1836    1.0  0.39834  0.63888  0.80930  1.0000
  Sn  Sn1837    1.0  0.28571  0.63428  0.70833  1.0000
  Sn  Sn1838    1.0  0.28571  0.53238  0.79167  1.0000
  Sn  Sn1839    1.0  0.35714  0.55095  0.70833  1.0000
  Sn  Sn1840    1.0  0.35714  0.61572  0.79167  1.0000
  Sn  Sn1841    1.0  0.34167  0.52547  0.92223  1.0000
  Sn  Sn1842    1.0  0.37261  0.64120  0.91110  1.0000
  Sn  Sn1843    1.0  0.37261  0.52547  0.99443  1.0000
  Sn  Sn1844    1.0  0.34167  0.64120  0.83890  1.0000
  Sn  Sn1845    1.0  0.30119  0.55787  0.91110  1.0000
  Sn  Sn1846    1.0  0.30119  0.60880  0.99443  1.0000
  Sn  Sn1847    1.0  0.41310  0.55787  0.83890  1.0000
  Sn  Sn1848    1.0  0.32691  0.61112  0.89263  1.0000
  Sn  Sn1849    1.0  0.38737  0.55555  0.94070  1.0000
  Sn  Sn1850    1.0  0.38737  0.61112  0.85737  1.0000
  Sn  Sn1851    1.0  0.32691  0.55555  0.97597  1.0000
  Sn  Sn1852    1.0  0.39834  0.52778  0.89263  1.0000
  Sn  Sn1853    1.0  0.31594  0.63888  0.94070  1.0000
  Sn  Sn1854    1.0  0.31594  0.52778  0.85737  1.0000
  Sn  Sn1855    1.0  0.39834  0.63888  0.97597  1.0000
  Sn  Sn1856    1.0  0.28571  0.63428  0.87500  1.0000
  Sn  Sn1857    1.0  0.28571  0.53238  0.95833  1.0000
  Sn  Sn1858    1.0  0.35714  0.55095  0.87500  1.0000
  Sn  Sn1859    1.0  0.35714  0.61572  0.95833  1.0000
  Sn  Sn1860    1.0  0.34167  0.69213  0.08890  1.0000
  Sn  Sn1861    1.0  0.37261  0.80787  0.07777  1.0000
  Sn  Sn1862    1.0  0.37261  0.69213  0.16110  1.0000
  Sn  Sn1863    1.0  0.34167  0.80787  0.00557  1.0000
  Sn  Sn1864    1.0  0.41310  0.77547  0.08890  1.0000
  Sn  Sn1865    1.0  0.30119  0.72453  0.07777  1.0000
  Sn  Sn1866    1.0  0.30119  0.77547  0.16110  1.0000
  Sn  Sn1867    1.0  0.41310  0.72453  0.00557  1.0000
  Sn  Sn1868    1.0  0.32691  0.77778  0.05930  1.0000
  Sn  Sn1869    1.0  0.38737  0.72222  0.10737  1.0000
  Sn  Sn1870    1.0  0.38737  0.77778  0.02403  1.0000
  Sn  Sn1871    1.0  0.32691  0.72222  0.14263  1.0000
  Sn  Sn1872    1.0  0.39834  0.69445  0.05930  1.0000
  Sn  Sn1873    1.0  0.31594  0.80555  0.10737  1.0000
  Sn  Sn1874    1.0  0.31594  0.69445  0.02403  1.0000
  Sn  Sn1875    1.0  0.39834  0.80555  0.14263  1.0000
  Sn  Sn1876    1.0  0.28571  0.80095  0.04167  1.0000
  Sn  Sn1877    1.0  0.28571  0.69905  0.12500  1.0000
  Sn  Sn1878    1.0  0.35714  0.71762  0.04167  1.0000
  Sn  Sn1879    1.0  0.35714  0.78238  0.12500  1.0000
  Sn  Sn1880    1.0  0.34167  0.69213  0.25557  1.0000
  Sn  Sn1881    1.0  0.37261  0.80787  0.24443  1.0000
  Sn  Sn1882    1.0  0.37261  0.69213  0.32777  1.0000
  Sn  Sn1883    1.0  0.34167  0.80787  0.17223  1.0000
  Sn  Sn1884    1.0  0.41310  0.77547  0.25557  1.0000
  Sn  Sn1885    1.0  0.30119  0.72453  0.24443  1.0000
  Sn  Sn1886    1.0  0.30119  0.77547  0.32777  1.0000
  Sn  Sn1887    1.0  0.41310  0.72453  0.17223  1.0000
  Sn  Sn1888    1.0  0.32691  0.77778  0.22597  1.0000
  Sn  Sn1889    1.0  0.38737  0.72222  0.27403  1.0000
  Sn  Sn1890    1.0  0.38737  0.77778  0.19070  1.0000
  Sn  Sn1891    1.0  0.32691  0.72222  0.30930  1.0000
  Sn  Sn1892    1.0  0.39834  0.69445  0.22597  1.0000
  Sn  Sn1893    1.0  0.31594  0.80555  0.27403  1.0000
  Sn  Sn1894    1.0  0.31594  0.69445  0.19070  1.0000
  Sn  Sn1895    1.0  0.39834  0.80555  0.30930  1.0000
  Sn  Sn1896    1.0  0.28571  0.80095  0.20833  1.0000
  Sn  Sn1897    1.0  0.28571  0.69905  0.29167  1.0000
  Sn  Sn1898    1.0  0.35714  0.71762  0.20833  1.0000
  Sn  Sn1899    1.0  0.35714  0.78238  0.29167  1.0000
  Sn  Sn1900    1.0  0.34167  0.69213  0.42223  1.0000
  Sn  Sn1901    1.0  0.37261  0.80787  0.41110  1.0000
  Sn  Sn1902    1.0  0.37261  0.69213  0.49443  1.0000
  Sn  Sn1903    1.0  0.34167  0.80787  0.33890  1.0000
  Sn  Sn1904    1.0  0.41310  0.77547  0.42223  1.0000
  Sn  Sn1905    1.0  0.30119  0.72453  0.41110  1.0000
  Sn  Sn1906    1.0  0.30119  0.77547  0.49443  1.0000
  Sn  Sn1907    1.0  0.41310  0.72453  0.33890  1.0000
  Sn  Sn1908    1.0  0.38737  0.72222  0.44070  1.0000
  Sn  Sn1909    1.0  0.38737  0.77778  0.35737  1.0000
  Sn  Sn1910    1.0  0.32691  0.72222  0.47597  1.0000
  Sn  Sn1911    1.0  0.39834  0.69445  0.39263  1.0000
  Sn  Sn1912    1.0  0.31594  0.80555  0.44070  1.0000
  Sn  Sn1913    1.0  0.31594  0.69445  0.35737  1.0000
  Sn  Sn1914    1.0  0.39834  0.80555  0.47597  1.0000
  Sn  Sn1915    1.0  0.28571  0.80095  0.37500  1.0000
  Sn  Sn1916    1.0  0.28571  0.69905  0.45833  1.0000
  Sn  Sn1917    1.0  0.35714  0.71762  0.37500  1.0000
  Sn  Sn1918    1.0  0.35714  0.78238  0.45833  1.0000
  Sn  Sn1919    1.0  0.34167  0.69213  0.58890  1.0000
  Sn  Sn1920    1.0  0.37261  0.80787  0.57777  1.0000
  Sn  Sn1921    1.0  0.37261  0.69213  0.66110  1.0000
  Sn  Sn1922    1.0  0.34167  0.80787  0.50557  1.0000
  Sn  Sn1923    1.0  0.41310  0.77547  0.58890  1.0000
  Sn  Sn1924    1.0  0.30119  0.72453  0.57777  1.0000
  Sn  Sn1925    1.0  0.30119  0.77547  0.66110  1.0000
  Sn  Sn1926    1.0  0.41310  0.72453  0.50557  1.0000
  Sn  Sn1927    1.0  0.32691  0.77778  0.55930  1.0000
  Sn  Sn1928    1.0  0.38737  0.72222  0.60737  1.0000
  Sn  Sn1929    1.0  0.38737  0.77778  0.52403  1.0000
  Sn  Sn1930    1.0  0.32691  0.72222  0.64263  1.0000
  Sn  Sn1931    1.0  0.39834  0.69445  0.55930  1.0000
  Sn  Sn1932    1.0  0.31594  0.80555  0.60737  1.0000
  Sn  Sn1933    1.0  0.31594  0.69445  0.52403  1.0000
  Sn  Sn1934    1.0  0.39834  0.80555  0.64263  1.0000
  Sn  Sn1935    1.0  0.28571  0.80095  0.54167  1.0000
  Sn  Sn1936    1.0  0.28571  0.69905  0.62500  1.0000
  Sn  Sn1937    1.0  0.35714  0.71762  0.54167  1.0000
  Sn  Sn1938    1.0  0.35714  0.78238  0.62500  1.0000
  Sn  Sn1939    1.0  0.34167  0.69213  0.75557  1.0000
  Sn  Sn1940    1.0  0.37261  0.80787  0.74443  1.0000
  Sn  Sn1941    1.0  0.37261  0.69213  0.82777  1.0000
  Sn  Sn1942    1.0  0.34167  0.80787  0.67223  1.0000
  Sn  Sn1943    1.0  0.41310  0.77547  0.75557  1.0000
  Sn  Sn1944    1.0  0.30119  0.72453  0.74443  1.0000
  Sn  Sn1945    1.0  0.30119  0.77547  0.82777  1.0000
  Sn  Sn1946    1.0  0.41310  0.72453  0.67223  1.0000
  Sn  Sn1947    1.0  0.38737  0.72222  0.77403  1.0000
  Sn  Sn1948    1.0  0.38737  0.77778  0.69070  1.0000
  Sn  Sn1949    1.0  0.32691  0.72222  0.80930  1.0000
  Sn  Sn1950    1.0  0.39834  0.69445  0.72597  1.0000
  Sn  Sn1951    1.0  0.31594  0.80555  0.77403  1.0000
  Sn  Sn1952    1.0  0.31594  0.69445  0.69070  1.0000
  Sn  Sn1953    1.0  0.39834  0.80555  0.80930  1.0000
  Sn  Sn1954    1.0  0.28571  0.80095  0.70833  1.0000
  Sn  Sn1955    1.0  0.28571  0.69905  0.79167  1.0000
  Sn  Sn1956    1.0  0.35714  0.71762  0.70833  1.0000
  Sn  Sn1957    1.0  0.35714  0.78238  0.79167  1.0000
  Sn  Sn1958    1.0  0.34167  0.69213  0.92223  1.0000
  Sn  Sn1959    1.0  0.37261  0.80787  0.91110  1.0000
  Sn  Sn1960    1.0  0.37261  0.69213  0.99443  1.0000
  Sn  Sn1961    1.0  0.41310  0.77547  0.92223  1.0000
  Sn  Sn1962    1.0  0.30119  0.72453  0.91110  1.0000
  Sn  Sn1963    1.0  0.30119  0.77547  0.99443  1.0000
  Sn  Sn1964    1.0  0.41310  0.72453  0.83890  1.0000
  Sn  Sn1965    1.0  0.32691  0.77778  0.89263  1.0000
  Sn  Sn1966    1.0  0.38737  0.72222  0.94070  1.0000
  Sn  Sn1967    1.0  0.38737  0.77778  0.85737  1.0000
  Sn  Sn1968    1.0  0.32691  0.72222  0.97597  1.0000
  Sn  Sn1969    1.0  0.39834  0.69445  0.89263  1.0000
  Sn  Sn1970    1.0  0.31594  0.80555  0.94070  1.0000
  Sn  Sn1971    1.0  0.28571  0.80095  0.87500  1.0000
  Sn  Sn1972    1.0  0.28571  0.69905  0.95833  1.0000
  Sn  Sn1973    1.0  0.35714  0.71762  0.87500  1.0000
  Sn  Sn1974    1.0  0.35714  0.78238  0.95833  1.0000
  Sn  Sn1975    1.0  0.34167  0.85880  0.08890  1.0000
  Sn  Sn1976    1.0  0.37261  0.97453  0.07777  1.0000
  Sn  Sn1977    1.0  0.37261  0.85880  0.16110  1.0000
  Sn  Sn1978    1.0  0.34167  0.97453  0.00557  1.0000
  Sn  Sn1979    1.0  0.41310  0.94213  0.08890  1.0000
  Sn  Sn1980    1.0  0.30119  0.89120  0.07777  1.0000
  Sn  Sn1981    1.0  0.30119  0.94213  0.16110  1.0000
  Sn  Sn1982    1.0  0.41310  0.89120  0.00557  1.0000
  Sn  Sn1983    1.0  0.32691  0.94445  0.05930  1.0000
  Sn  Sn1984    1.0  0.38737  0.88888  0.10737  1.0000
  Sn  Sn1985    1.0  0.38737  0.94445  0.02403  1.0000
  Sn  Sn1986    1.0  0.32691  0.88888  0.14263  1.0000
  Sn  Sn1987    1.0  0.39834  0.86112  0.05930  1.0000
  Sn  Sn1988    1.0  0.31594  0.97222  0.10737  1.0000
  Sn  Sn1989    1.0  0.31594  0.86112  0.02403  1.0000
  Sn  Sn1990    1.0  0.39834  0.97222  0.14263  1.0000
  Sn  Sn1991    1.0  0.28571  0.96762  0.04167  1.0000
  Sn  Sn1992    1.0  0.28571  0.86572  0.12500  1.0000
  Sn  Sn1993    1.0  0.35714  0.88428  0.04167  1.0000
  Sn  Sn1994    1.0  0.35714  0.94905  0.12500  1.0000
  Sn  Sn1995    1.0  0.34167  0.85880  0.25557  1.0000
  Sn  Sn1996    1.0  0.37261  0.97453  0.24443  1.0000
  Sn  Sn1997    1.0  0.37261  0.85880  0.32777  1.0000
  Sn  Sn1998    1.0  0.34167  0.97453  0.17223  1.0000
  Sn  Sn1999    1.0  0.41310  0.94213  0.25557  1.0000
  Sn  Sn2000    1.0  0.30119  0.89120  0.24443  1.0000
  Sn  Sn2001    1.0  0.30119  0.94213  0.32777  1.0000
  Sn  Sn2002    1.0  0.41310  0.89120  0.17223  1.0000
  Sn  Sn2003    1.0  0.32691  0.94445  0.22597  1.0000
  Sn  Sn2004    1.0  0.38737  0.88888  0.27403  1.0000
  Sn  Sn2005    1.0  0.38737  0.94445  0.19070  1.0000
  Sn  Sn2006    1.0  0.32691  0.88888  0.30930  1.0000
  Sn  Sn2007    1.0  0.39834  0.86112  0.22597  1.0000
  Sn  Sn2008    1.0  0.31594  0.97222  0.27403  1.0000
  Sn  Sn2009    1.0  0.31594  0.86112  0.19070  1.0000
  Sn  Sn2010    1.0  0.39834  0.97222  0.30930  1.0000
  Sn  Sn2011    1.0  0.28571  0.96762  0.20833  1.0000
  Sn  Sn2012    1.0  0.28571  0.86572  0.29167  1.0000
  Sn  Sn2013    1.0  0.35714  0.88428  0.20833  1.0000
  Sn  Sn2014    1.0  0.35714  0.94905  0.29167  1.0000
  Sn  Sn2015    1.0  0.34167  0.85880  0.42223  1.0000
  Sn  Sn2016    1.0  0.37261  0.97453  0.41110  1.0000
  Sn  Sn2017    1.0  0.37261  0.85880  0.49443  1.0000
  Sn  Sn2018    1.0  0.34167  0.97453  0.33890  1.0000
  Sn  Sn2019    1.0  0.41310  0.94213  0.42223  1.0000
  Sn  Sn2020    1.0  0.30119  0.89120  0.41110  1.0000
  Sn  Sn2021    1.0  0.30119  0.94213  0.49443  1.0000
  Sn  Sn2022    1.0  0.41310  0.89120  0.33890  1.0000
  Sn  Sn2023    1.0  0.32691  0.94445  0.39263  1.0000
  Sn  Sn2024    1.0  0.38737  0.88888  0.44070  1.0000
  Sn  Sn2025    1.0  0.38737  0.94445  0.35737  1.0000
  Sn  Sn2026    1.0  0.32691  0.88888  0.47597  1.0000
  Sn  Sn2027    1.0  0.39834  0.86112  0.39263  1.0000
  Sn  Sn2028    1.0  0.31594  0.97222  0.44070  1.0000
  Sn  Sn2029    1.0  0.31594  0.86112  0.35737  1.0000
  Sn  Sn2030    1.0  0.39834  0.97222  0.47597  1.0000
  Sn  Sn2031    1.0  0.28571  0.96762  0.37500  1.0000
  Sn  Sn2032    1.0  0.28571  0.86572  0.45833  1.0000
  Sn  Sn2033    1.0  0.35714  0.88428  0.37500  1.0000
  Sn  Sn2034    1.0  0.35714  0.94905  0.45833  1.0000
  Sn  Sn2035    1.0  0.34167  0.85880  0.58890  1.0000
  Sn  Sn2036    1.0  0.37261  0.97453  0.57777  1.0000
  Sn  Sn2037    1.0  0.37261  0.85880  0.66110  1.0000
  Sn  Sn2038    1.0  0.34167  0.97453  0.50557  1.0000
  Sn  Sn2039    1.0  0.41310  0.94213  0.58890  1.0000
  Sn  Sn2040    1.0  0.30119  0.89120  0.57777  1.0000
  Sn  Sn2041    1.0  0.30119  0.94213  0.66110  1.0000
  Sn  Sn2042    1.0  0.41310  0.89120  0.50557  1.0000
  Sn  Sn2043    1.0  0.32691  0.94445  0.55930  1.0000
  Sn  Sn2044    1.0  0.38737  0.88888  0.60737  1.0000
  Sn  Sn2045    1.0  0.38737  0.94445  0.52403  1.0000
  Sn  Sn2046    1.0  0.32691  0.88888  0.64263  1.0000
  Sn  Sn2047    1.0  0.39834  0.86112  0.55930  1.0000
  Sn  Sn2048    1.0  0.31594  0.97222  0.60737  1.0000
  Sn  Sn2049    1.0  0.31594  0.86112  0.52403  1.0000
  Sn  Sn2050    1.0  0.39834  0.97222  0.64263  1.0000
  Sn  Sn2051    1.0  0.28571  0.96762  0.54167  1.0000
  Sn  Sn2052    1.0  0.28571  0.86572  0.62500  1.0000
  Sn  Sn2053    1.0  0.35714  0.88428  0.54167  1.0000
  Sn  Sn2054    1.0  0.35714  0.94905  0.62500  1.0000
  Sn  Sn2055    1.0  0.34167  0.85880  0.75557  1.0000
  Sn  Sn2056    1.0  0.37261  0.97453  0.74443  1.0000
  Sn  Sn2057    1.0  0.37261  0.85880  0.82777  1.0000
  Sn  Sn2058    1.0  0.34167  0.97453  0.67223  1.0000
  Sn  Sn2059    1.0  0.41310  0.94213  0.75557  1.0000
  Sn  Sn2060    1.0  0.30119  0.89120  0.74443  1.0000
  Sn  Sn2061    1.0  0.30119  0.94213  0.82777  1.0000
  Sn  Sn2062    1.0  0.41310  0.89120  0.67223  1.0000
  Sn  Sn2063    1.0  0.32691  0.94445  0.72597  1.0000
  Sn  Sn2064    1.0  0.38737  0.88888  0.77403  1.0000
  Sn  Sn2065    1.0  0.38737  0.94445  0.69070  1.0000
  Sn  Sn2066    1.0  0.32691  0.88888  0.80930  1.0000
  Sn  Sn2067    1.0  0.39834  0.86112  0.72597  1.0000
  Sn  Sn2068    1.0  0.31594  0.97222  0.77403  1.0000
  Sn  Sn2069    1.0  0.31594  0.86112  0.69070  1.0000
  Sn  Sn2070    1.0  0.39834  0.97222  0.80930  1.0000
  Sn  Sn2071    1.0  0.28571  0.96762  0.70833  1.0000
  Sn  Sn2072    1.0  0.28571  0.86572  0.79167  1.0000
  Sn  Sn2073    1.0  0.35714  0.88428  0.70833  1.0000
  Sn  Sn2074    1.0  0.35714  0.94905  0.79167  1.0000
  Sn  Sn2075    1.0  0.34167  0.85880  0.92223  1.0000
  Sn  Sn2076    1.0  0.37261  0.97453  0.91110  1.0000
  Sn  Sn2077    1.0  0.37261  0.85880  0.99443  1.0000
  Sn  Sn2078    1.0  0.34167  0.97453  0.83890  1.0000
  Sn  Sn2079    1.0  0.41310  0.94213  0.92223  1.0000
  Sn  Sn2080    1.0  0.30119  0.89120  0.91110  1.0000
  Sn  Sn2081    1.0  0.30119  0.94213  0.99443  1.0000
  Sn  Sn2082    1.0  0.41310  0.89120  0.83890  1.0000
  Sn  Sn2083    1.0  0.32691  0.94445  0.89263  1.0000
  Sn  Sn2084    1.0  0.38737  0.88888  0.94070  1.0000
  Sn  Sn2085    1.0  0.38737  0.94445  0.85737  1.0000
  Sn  Sn2086    1.0  0.32691  0.88888  0.97597  1.0000
  Sn  Sn2087    1.0  0.39834  0.86112  0.89263  1.0000
  Sn  Sn2088    1.0  0.31594  0.97222  0.94070  1.0000
  Sn  Sn2089    1.0  0.31594  0.86112  0.85737  1.0000
  Sn  Sn2090    1.0  0.39834  0.97222  0.97597  1.0000
  Sn  Sn2091    1.0  0.28571  0.96762  0.87500  1.0000
  Sn  Sn2092    1.0  0.28571  0.86572  0.95833  1.0000
  Sn  Sn2093    1.0  0.35714  0.88428  0.87500  1.0000
  Sn  Sn2094    1.0  0.35714  0.94905  0.95833  1.0000
  Sn  Sn2095    1.0  0.48453  0.02547  0.08890  1.0000
  Sn  Sn2096    1.0  0.51547  0.14120  0.07777  1.0000
  Sn  Sn2097    1.0  0.51547  0.02547  0.16110  1.0000
  Sn  Sn2098    1.0  0.48453  0.14120  0.00557  1.0000
  Sn  Sn2099    1.0  0.55596  0.10880  0.08890  1.0000
  Sn  Sn2100    1.0  0.44404  0.05787  0.07777  1.0000
  Sn  Sn2101    1.0  0.44404  0.10880  0.16110  1.0000
  Sn  Sn2102    1.0  0.55596  0.05787  0.00557  1.0000
  Sn  Sn2103    1.0  0.46977  0.11112  0.05930  1.0000
  Sn  Sn2104    1.0  0.53023  0.05555  0.10737  1.0000
  Sn  Sn2105    1.0  0.53023  0.11112  0.02403  1.0000
  Sn  Sn2106    1.0  0.46977  0.05555  0.14263  1.0000
  Sn  Sn2107    1.0  0.54120  0.02778  0.05930  1.0000
  Sn  Sn2108    1.0  0.45880  0.13888  0.10737  1.0000
  Sn  Sn2109    1.0  0.45880  0.02778  0.02403  1.0000
  Sn  Sn2110    1.0  0.54120  0.13888  0.14263  1.0000
  Sn  Sn2111    1.0  0.42857  0.13428  0.04167  1.0000
  Sn  Sn2112    1.0  0.42857  0.03238  0.12500  1.0000
  Sn  Sn2113    1.0  0.50000  0.05095  0.04167  1.0000
  Sn  Sn2114    1.0  0.50000  0.11572  0.12500  1.0000
  Sn  Sn2115    1.0  0.48453  0.02547  0.25557  1.0000
  Sn  Sn2116    1.0  0.51547  0.14120  0.24443  1.0000
  Sn  Sn2117    1.0  0.51547  0.02547  0.32777  1.0000
  Sn  Sn2118    1.0  0.48453  0.14120  0.17223  1.0000
  Sn  Sn2119    1.0  0.55596  0.10880  0.25557  1.0000
  Sn  Sn2120    1.0  0.44404  0.05787  0.24443  1.0000
  Sn  Sn2121    1.0  0.44404  0.10880  0.32777  1.0000
  Sn  Sn2122    1.0  0.55596  0.05787  0.17223  1.0000
  Sn  Sn2123    1.0  0.46977  0.11112  0.22597  1.0000
  Sn  Sn2124    1.0  0.53023  0.05555  0.27403  1.0000
  Sn  Sn2125    1.0  0.53023  0.11112  0.19070  1.0000
  Sn  Sn2126    1.0  0.46977  0.05555  0.30930  1.0000
  Sn  Sn2127    1.0  0.54120  0.02778  0.22597  1.0000
  Sn  Sn2128    1.0  0.45880  0.13888  0.27403  1.0000
  Sn  Sn2129    1.0  0.45880  0.02778  0.19070  1.0000
  Sn  Sn2130    1.0  0.54120  0.13888  0.30930  1.0000
  Sn  Sn2131    1.0  0.42857  0.13428  0.20833  1.0000
  Sn  Sn2132    1.0  0.42857  0.03238  0.29167  1.0000
  Sn  Sn2133    1.0  0.50000  0.05095  0.20833  1.0000
  Sn  Sn2134    1.0  0.50000  0.11572  0.29167  1.0000
  Sn  Sn2135    1.0  0.48453  0.02547  0.42223  1.0000
  Sn  Sn2136    1.0  0.51547  0.14120  0.41110  1.0000
  Sn  Sn2137    1.0  0.51547  0.02547  0.49443  1.0000
  Sn  Sn2138    1.0  0.48453  0.14120  0.33890  1.0000
  Sn  Sn2139    1.0  0.55596  0.10880  0.42223  1.0000
  Sn  Sn2140    1.0  0.44404  0.05787  0.41110  1.0000
  Sn  Sn2141    1.0  0.44404  0.10880  0.49443  1.0000
  Sn  Sn2142    1.0  0.55596  0.05787  0.33890  1.0000
  Sn  Sn2143    1.0  0.46977  0.11112  0.39263  1.0000
  Sn  Sn2144    1.0  0.53023  0.05555  0.44070  1.0000
  Sn  Sn2145    1.0  0.53023  0.11112  0.35737  1.0000
  Sn  Sn2146    1.0  0.46977  0.05555  0.47597  1.0000
  Sn  Sn2147    1.0  0.54120  0.02778  0.39263  1.0000
  Sn  Sn2148    1.0  0.45880  0.13888  0.44070  1.0000
  Sn  Sn2149    1.0  0.45880  0.02778  0.35737  1.0000
  Sn  Sn2150    1.0  0.54120  0.13888  0.47597  1.0000
  Sn  Sn2151    1.0  0.42857  0.13428  0.37500  1.0000
  Sn  Sn2152    1.0  0.42857  0.03238  0.45833  1.0000
  Sn  Sn2153    1.0  0.50000  0.05095  0.37500  1.0000
  Sn  Sn2154    1.0  0.50000  0.11572  0.45833  1.0000
  Sn  Sn2155    1.0  0.48453  0.02547  0.58890  1.0000
  Sn  Sn2156    1.0  0.51547  0.14120  0.57777  1.0000
  Sn  Sn2157    1.0  0.51547  0.02547  0.66110  1.0000
  Sn  Sn2158    1.0  0.48453  0.14120  0.50557  1.0000
  Sn  Sn2159    1.0  0.55596  0.10880  0.58890  1.0000
  Sn  Sn2160    1.0  0.44404  0.05787  0.57777  1.0000
  Sn  Sn2161    1.0  0.44404  0.10880  0.66110  1.0000
  Sn  Sn2162    1.0  0.55596  0.05787  0.50557  1.0000
  Sn  Sn2163    1.0  0.46977  0.11112  0.55930  1.0000
  Sn  Sn2164    1.0  0.53023  0.05555  0.60737  1.0000
  Sn  Sn2165    1.0  0.53023  0.11112  0.52403  1.0000
  Sn  Sn2166    1.0  0.46977  0.05555  0.64263  1.0000
  Sn  Sn2167    1.0  0.54120  0.02778  0.55930  1.0000
  Sn  Sn2168    1.0  0.45880  0.13888  0.60737  1.0000
  Sn  Sn2169    1.0  0.45880  0.02778  0.52403  1.0000
  Sn  Sn2170    1.0  0.54120  0.13888  0.64263  1.0000
  Sn  Sn2171    1.0  0.42857  0.13428  0.54167  1.0000
  Sn  Sn2172    1.0  0.42857  0.03238  0.62500  1.0000
  Sn  Sn2173    1.0  0.50000  0.05095  0.54167  1.0000
  Sn  Sn2174    1.0  0.50000  0.11572  0.62500  1.0000
  Sn  Sn2175    1.0  0.48453  0.02547  0.75557  1.0000
  Sn  Sn2176    1.0  0.51547  0.14120  0.74443  1.0000
  Sn  Sn2177    1.0  0.51547  0.02547  0.82777  1.0000
  Sn  Sn2178    1.0  0.48453  0.14120  0.67223  1.0000
  Sn  Sn2179    1.0  0.55596  0.10880  0.75557  1.0000
  Sn  Sn2180    1.0  0.44404  0.05787  0.74443  1.0000
  Sn  Sn2181    1.0  0.44404  0.10880  0.82777  1.0000
  Sn  Sn2182    1.0  0.55596  0.05787  0.67223  1.0000
  Sn  Sn2183    1.0  0.46977  0.11112  0.72597  1.0000
  Sn  Sn2184    1.0  0.53023  0.05555  0.77403  1.0000
  Sn  Sn2185    1.0  0.53023  0.11112  0.69070  1.0000
  Sn  Sn2186    1.0  0.46977  0.05555  0.80930  1.0000
  Sn  Sn2187    1.0  0.54120  0.02778  0.72597  1.0000
  Sn  Sn2188    1.0  0.45880  0.13888  0.77403  1.0000
  Sn  Sn2189    1.0  0.45880  0.02778  0.69070  1.0000
  Sn  Sn2190    1.0  0.54120  0.13888  0.80930  1.0000
  Sn  Sn2191    1.0  0.42857  0.13428  0.70833  1.0000
  Sn  Sn2192    1.0  0.42857  0.03238  0.79167  1.0000
  Sn  Sn2193    1.0  0.50000  0.05095  0.70833  1.0000
  Sn  Sn2194    1.0  0.50000  0.11572  0.79167  1.0000
  Sn  Sn2195    1.0  0.48453  0.02547  0.92223  1.0000
  Sn  Sn2196    1.0  0.51547  0.14120  0.91110  1.0000
  Sn  Sn2197    1.0  0.51547  0.02547  0.99443  1.0000
  Sn  Sn2198    1.0  0.48453  0.14120  0.83890  1.0000
  Sn  Sn2199    1.0  0.55596  0.10880  0.92223  1.0000
  Sn  Sn2200    1.0  0.44404  0.05787  0.91110  1.0000
  Sn  Sn2201    1.0  0.44404  0.10880  0.99443  1.0000
  Sn  Sn2202    1.0  0.46977  0.11112  0.89263  1.0000
  Sn  Sn2203    1.0  0.53023  0.05555  0.94070  1.0000
  Sn  Sn2204    1.0  0.53023  0.11112  0.85737  1.0000
  Sn  Sn2205    1.0  0.46977  0.05555  0.97597  1.0000
  Sn  Sn2206    1.0  0.54120  0.02778  0.89263  1.0000
  Sn  Sn2207    1.0  0.45880  0.13888  0.94070  1.0000
  Sn  Sn2208    1.0  0.45880  0.02778  0.85737  1.0000
  Sn  Sn2209    1.0  0.54120  0.13888  0.97597  1.0000
  Sn  Sn2210    1.0  0.42857  0.13428  0.87500  1.0000
  Sn  Sn2211    1.0  0.42857  0.03238  0.95833  1.0000
  Sn  Sn2212    1.0  0.50000  0.05095  0.87500  1.0000
  Sn  Sn2213    1.0  0.50000  0.11572  0.95833  1.0000
  Sn  Sn2214    1.0  0.48453  0.19213  0.08890  1.0000
  Sn  Sn2215    1.0  0.51547  0.30787  0.07777  1.0000
  Sn  Sn2216    1.0  0.51547  0.19213  0.16110  1.0000
  Sn  Sn2217    1.0  0.48453  0.30787  0.00557  1.0000
  Sn  Sn2218    1.0  0.55596  0.27547  0.08890  1.0000
  Sn  Sn2219    1.0  0.44404  0.22453  0.07777  1.0000
  Sn  Sn2220    1.0  0.44404  0.27547  0.16110  1.0000
  Sn  Sn2221    1.0  0.55596  0.22453  0.00557  1.0000
  Sn  Sn2222    1.0  0.46977  0.27778  0.05930  1.0000
  Sn  Sn2223    1.0  0.53023  0.22222  0.10737  1.0000
  Sn  Sn2224    1.0  0.53023  0.27778  0.02403  1.0000
  Sn  Sn2225    1.0  0.46977  0.22222  0.14263  1.0000
  Sn  Sn2226    1.0  0.54120  0.19445  0.05930  1.0000
  Sn  Sn2227    1.0  0.45880  0.30555  0.10737  1.0000
  Sn  Sn2228    1.0  0.45880  0.19445  0.02403  1.0000
  Sn  Sn2229    1.0  0.54120  0.30555  0.14263  1.0000
  Sn  Sn2230    1.0  0.42857  0.30095  0.04167  1.0000
  Sn  Sn2231    1.0  0.42857  0.19905  0.12500  1.0000
  Sn  Sn2232    1.0  0.50000  0.21762  0.04167  1.0000
  Sn  Sn2233    1.0  0.50000  0.28238  0.12500  1.0000
  Sn  Sn2234    1.0  0.48453  0.19213  0.25557  1.0000
  Sn  Sn2235    1.0  0.51547  0.30787  0.24443  1.0000
  Sn  Sn2236    1.0  0.51547  0.19213  0.32777  1.0000
  Sn  Sn2237    1.0  0.48453  0.30787  0.17223  1.0000
  Sn  Sn2238    1.0  0.55596  0.27547  0.25557  1.0000
  Sn  Sn2239    1.0  0.44404  0.22453  0.24443  1.0000
  Sn  Sn2240    1.0  0.44404  0.27547  0.32777  1.0000
  Sn  Sn2241    1.0  0.55596  0.22453  0.17223  1.0000
  Sn  Sn2242    1.0  0.46977  0.27778  0.22597  1.0000
  Sn  Sn2243    1.0  0.53023  0.22222  0.27403  1.0000
  Sn  Sn2244    1.0  0.53023  0.27778  0.19070  1.0000
  Sn  Sn2245    1.0  0.46977  0.22222  0.30930  1.0000
  Sn  Sn2246    1.0  0.54120  0.19445  0.22597  1.0000
  Sn  Sn2247    1.0  0.45880  0.30555  0.27403  1.0000
  Sn  Sn2248    1.0  0.45880  0.19445  0.19070  1.0000
  Sn  Sn2249    1.0  0.54120  0.30555  0.30930  1.0000
  Sn  Sn2250    1.0  0.42857  0.30095  0.20833  1.0000
  Sn  Sn2251    1.0  0.42857  0.19905  0.29167  1.0000
  Sn  Sn2252    1.0  0.50000  0.21762  0.20833  1.0000
  Sn  Sn2253    1.0  0.50000  0.28238  0.29167  1.0000
  Sn  Sn2254    1.0  0.48453  0.19213  0.42223  1.0000
  Sn  Sn2255    1.0  0.51547  0.30787  0.41110  1.0000
  Sn  Sn2256    1.0  0.51547  0.19213  0.49443  1.0000
  Sn  Sn2257    1.0  0.48453  0.30787  0.33890  1.0000
  Sn  Sn2258    1.0  0.44404  0.22453  0.41110  1.0000
  Sn  Sn2259    1.0  0.44404  0.27547  0.49443  1.0000
  Sn  Sn2260    1.0  0.55596  0.22453  0.33890  1.0000
  Sn  Sn2261    1.0  0.46977  0.27778  0.39263  1.0000
  Sn  Sn2262    1.0  0.53023  0.22222  0.44070  1.0000
  Sn  Sn2263    1.0  0.53023  0.27778  0.35737  1.0000
  Sn  Sn2264    1.0  0.46977  0.22222  0.47597  1.0000
  Sn  Sn2265    1.0  0.54120  0.19445  0.39263  1.0000
  Sn  Sn2266    1.0  0.45880  0.30555  0.44070  1.0000
  Sn  Sn2267    1.0  0.45880  0.19445  0.35737  1.0000
  Sn  Sn2268    1.0  0.54120  0.30555  0.47597  1.0000
  Sn  Sn2269    1.0  0.42857  0.30095  0.37500  1.0000
  Sn  Sn2270    1.0  0.42857  0.19905  0.45833  1.0000
  Sn  Sn2271    1.0  0.50000  0.21762  0.37500  1.0000
  Sn  Sn2272    1.0  0.50000  0.28238  0.45833  1.0000
  Sn  Sn2273    1.0  0.48453  0.19213  0.58890  1.0000
  Sn  Sn2274    1.0  0.51547  0.30787  0.57777  1.0000
  Sn  Sn2275    1.0  0.51547  0.19213  0.66110  1.0000
  Sn  Sn2276    1.0  0.48453  0.30787  0.50557  1.0000
  Sn  Sn2277    1.0  0.55596  0.27547  0.58890  1.0000
  Sn  Sn2278    1.0  0.44404  0.22453  0.57777  1.0000
  Sn  Sn2279    1.0  0.44404  0.27547  0.66110  1.0000
  Sn  Sn2280    1.0  0.55596  0.22453  0.50557  1.0000
  Sn  Sn2281    1.0  0.46977  0.27778  0.55930  1.0000
  Sn  Sn2282    1.0  0.53023  0.22222  0.60737  1.0000
  Sn  Sn2283    1.0  0.53023  0.27778  0.52403  1.0000
  Sn  Sn2284    1.0  0.46977  0.22222  0.64263  1.0000
  Sn  Sn2285    1.0  0.54120  0.19445  0.55930  1.0000
  Sn  Sn2286    1.0  0.45880  0.30555  0.60737  1.0000
  Sn  Sn2287    1.0  0.45880  0.19445  0.52403  1.0000
  Sn  Sn2288    1.0  0.54120  0.30555  0.64263  1.0000
  Sn  Sn2289    1.0  0.42857  0.30095  0.54167  1.0000
  Sn  Sn2290    1.0  0.42857  0.19905  0.62500  1.0000
  Sn  Sn2291    1.0  0.50000  0.21762  0.54167  1.0000
  Sn  Sn2292    1.0  0.50000  0.28238  0.62500  1.0000
  Sn  Sn2293    1.0  0.48453  0.19213  0.75557  1.0000
  Sn  Sn2294    1.0  0.51547  0.30787  0.74443  1.0000
  Sn  Sn2295    1.0  0.51547  0.19213  0.82777  1.0000
  Sn  Sn2296    1.0  0.48453  0.30787  0.67223  1.0000
  Sn  Sn2297    1.0  0.55596  0.27547  0.75557  1.0000
  Sn  Sn2298    1.0  0.44404  0.22453  0.74443  1.0000
  Sn  Sn2299    1.0  0.44404  0.27547  0.82777  1.0000
  Sn  Sn2300    1.0  0.55596  0.22453  0.67223  1.0000
  Sn  Sn2301    1.0  0.46977  0.27778  0.72597  1.0000
  Sn  Sn2302    1.0  0.53023  0.22222  0.77403  1.0000
  Sn  Sn2303    1.0  0.53023  0.27778  0.69070  1.0000
  Sn  Sn2304    1.0  0.46977  0.22222  0.80930  1.0000
  Sn  Sn2305    1.0  0.54120  0.19445  0.72597  1.0000
  Sn  Sn2306    1.0  0.45880  0.30555  0.77403  1.0000
  Sn  Sn2307    1.0  0.45880  0.19445  0.69070  1.0000
  Sn  Sn2308    1.0  0.54120  0.30555  0.80930  1.0000
  Sn  Sn2309    1.0  0.42857  0.30095  0.70833  1.0000
  Sn  Sn2310    1.0  0.42857  0.19905  0.79167  1.0000
  Sn  Sn2311    1.0  0.50000  0.21762  0.70833  1.0000
  Sn  Sn2312    1.0  0.50000  0.28238  0.79167  1.0000
  Sn  Sn2313    1.0  0.48453  0.19213  0.92223  1.0000
  Sn  Sn2314    1.0  0.51547  0.30787  0.91110  1.0000
  Sn  Sn2315    1.0  0.51547  0.19213  0.99443  1.0000
  Sn  Sn2316    1.0  0.48453  0.30787  0.83890  1.0000
  Sn  Sn2317    1.0  0.55596  0.27547  0.92223  1.0000
  Sn  Sn2318    1.0  0.44404  0.22453  0.91110  1.0000
  Sn  Sn2319    1.0  0.44404  0.27547  0.99443  1.0000
  Sn  Sn2320    1.0  0.55596  0.22453  0.83890  1.0000
  Sn  Sn2321    1.0  0.46977  0.27778  0.89263  1.0000
  Sn  Sn2322    1.0  0.53023  0.22222  0.94070  1.0000
  Sn  Sn2323    1.0  0.53023  0.27778  0.85737  1.0000
  Sn  Sn2324    1.0  0.46977  0.22222  0.97597  1.0000
  Sn  Sn2325    1.0  0.54120  0.19445  0.89263  1.0000
  Sn  Sn2326    1.0  0.45880  0.30555  0.94070  1.0000
  Sn  Sn2327    1.0  0.45880  0.19445  0.85737  1.0000
  Sn  Sn2328    1.0  0.54120  0.30555  0.97597  1.0000
  Sn  Sn2329    1.0  0.42857  0.30095  0.87500  1.0000
  Sn  Sn2330    1.0  0.42857  0.19905  0.95833  1.0000
  Sn  Sn2331    1.0  0.50000  0.21762  0.87500  1.0000
  Sn  Sn2332    1.0  0.50000  0.28238  0.95833  1.0000
  Sn  Sn2333    1.0  0.51547  0.47453  0.07777  1.0000
  Sn  Sn2334    1.0  0.51547  0.35880  0.16110  1.0000
  Sn  Sn2335    1.0  0.48453  0.47453  0.00557  1.0000
  Sn  Sn2336    1.0  0.55596  0.44213  0.08890  1.0000
  Sn  Sn2337    1.0  0.44404  0.39120  0.07777  1.0000
  Sn  Sn2338    1.0  0.44404  0.44213  0.16110  1.0000
  Sn  Sn2339    1.0  0.55596  0.39120  0.00557  1.0000
  Sn  Sn2340    1.0  0.46977  0.44445  0.05930  1.0000
  Sn  Sn2341    1.0  0.53023  0.38888  0.10737  1.0000
  Sn  Sn2342    1.0  0.53023  0.44445  0.02403  1.0000
  Sn  Sn2343    1.0  0.46977  0.38888  0.14263  1.0000
  Sn  Sn2344    1.0  0.54120  0.36112  0.05930  1.0000
  Sn  Sn2345    1.0  0.45880  0.47222  0.10737  1.0000
  Sn  Sn2346    1.0  0.45880  0.36112  0.02403  1.0000
  Sn  Sn2347    1.0  0.54120  0.47222  0.14263  1.0000
  Sn  Sn2348    1.0  0.42857  0.46762  0.04167  1.0000
  Sn  Sn2349    1.0  0.42857  0.36572  0.12500  1.0000
  Sn  Sn2350    1.0  0.50000  0.38428  0.04167  1.0000
  Sn  Sn2351    1.0  0.50000  0.44905  0.12500  1.0000
  Sn  Sn2352    1.0  0.48453  0.35880  0.25557  1.0000
  Sn  Sn2353    1.0  0.51547  0.47453  0.24443  1.0000
  Sn  Sn2354    1.0  0.51547  0.35880  0.32777  1.0000
  Sn  Sn2355    1.0  0.48453  0.47453  0.17223  1.0000
  Sn  Sn2356    1.0  0.55596  0.44213  0.25557  1.0000
  Sn  Sn2357    1.0  0.44404  0.39120  0.24443  1.0000
  Sn  Sn2358    1.0  0.44404  0.44213  0.32777  1.0000
  Sn  Sn2359    1.0  0.55596  0.39120  0.17223  1.0000
  Sn  Sn2360    1.0  0.46977  0.44445  0.22597  1.0000
  Sn  Sn2361    1.0  0.53023  0.38888  0.27403  1.0000
  Sn  Sn2362    1.0  0.53023  0.44445  0.19070  1.0000
  Sn  Sn2363    1.0  0.46977  0.38888  0.30930  1.0000
  Sn  Sn2364    1.0  0.54120  0.36112  0.22597  1.0000
  Sn  Sn2365    1.0  0.45880  0.47222  0.27403  1.0000
  Sn  Sn2366    1.0  0.45880  0.36112  0.19070  1.0000
  Sn  Sn2367    1.0  0.54120  0.47222  0.30930  1.0000
  Sn  Sn2368    1.0  0.42857  0.46762  0.20833  1.0000
  Sn  Sn2369    1.0  0.42857  0.36572  0.29167  1.0000
  Sn  Sn2370    1.0  0.50000  0.38428  0.20833  1.0000
  Sn  Sn2371    1.0  0.50000  0.44905  0.29167  1.0000
  Sn  Sn2372    1.0  0.48453  0.35880  0.42223  1.0000
  Sn  Sn2373    1.0  0.51547  0.47453  0.41110  1.0000
  Sn  Sn2374    1.0  0.51547  0.35880  0.49443  1.0000
  Sn  Sn2375    1.0  0.48453  0.47453  0.33890  1.0000
  Sn  Sn2376    1.0  0.55596  0.44213  0.42223  1.0000
  Sn  Sn2377    1.0  0.44404  0.39120  0.41110  1.0000
  Sn  Sn2378    1.0  0.44404  0.44213  0.49443  1.0000
  Sn  Sn2379    1.0  0.55596  0.39120  0.33890  1.0000
  Sn  Sn2380    1.0  0.46977  0.44445  0.39263  1.0000
  Sn  Sn2381    1.0  0.53023  0.38888  0.44070  1.0000
  Sn  Sn2382    1.0  0.53023  0.44445  0.35737  1.0000
  Sn  Sn2383    1.0  0.46977  0.38888  0.47597  1.0000
  Sn  Sn2384    1.0  0.54120  0.36112  0.39263  1.0000
  Sn  Sn2385    1.0  0.45880  0.47222  0.44070  1.0000
  Sn  Sn2386    1.0  0.45880  0.36112  0.35737  1.0000
  Sn  Sn2387    1.0  0.54120  0.47222  0.47597  1.0000
  Sn  Sn2388    1.0  0.42857  0.46762  0.37500  1.0000
  Sn  Sn2389    1.0  0.42857  0.36572  0.45833  1.0000
  Sn  Sn2390    1.0  0.50000  0.38428  0.37500  1.0000
  Sn  Sn2391    1.0  0.50000  0.44905  0.45833  1.0000
  Sn  Sn2392    1.0  0.51547  0.47453  0.57777  1.0000
  Sn  Sn2393    1.0  0.51547  0.35880  0.66110  1.0000
  Sn  Sn2394    1.0  0.48453  0.47453  0.50557  1.0000
  Sn  Sn2395    1.0  0.55596  0.44213  0.58890  1.0000
  Sn  Sn2396    1.0  0.44404  0.39120  0.57777  1.0000
  Sn  Sn2397    1.0  0.44404  0.44213  0.66110  1.0000
  Sn  Sn2398    1.0  0.55596  0.39120  0.50557  1.0000
  Sn  Sn2399    1.0  0.46977  0.44445  0.55930  1.0000
  Sn  Sn2400    1.0  0.53023  0.38888  0.60737  1.0000
  Sn  Sn2401    1.0  0.53023  0.44445  0.52403  1.0000
  Sn  Sn2402    1.0  0.46977  0.38888  0.64263  1.0000
  Sn  Sn2403    1.0  0.54120  0.36112  0.55930  1.0000
  Sn  Sn2404    1.0  0.45880  0.47222  0.60737  1.0000
  Sn  Sn2405    1.0  0.45880  0.36112  0.52403  1.0000
  Sn  Sn2406    1.0  0.54120  0.47222  0.64263  1.0000
  Sn  Sn2407    1.0  0.42857  0.46762  0.54167  1.0000
  Sn  Sn2408    1.0  0.42857  0.36572  0.62500  1.0000
  Sn  Sn2409    1.0  0.50000  0.38428  0.54167  1.0000
  Sn  Sn2410    1.0  0.50000  0.44905  0.62500  1.0000
  Sn  Sn2411    1.0  0.48453  0.35880  0.75557  1.0000
  Sn  Sn2412    1.0  0.51547  0.47453  0.74443  1.0000
  Sn  Sn2413    1.0  0.48453  0.47453  0.67223  1.0000
  Sn  Sn2414    1.0  0.55596  0.44213  0.75557  1.0000
  Sn  Sn2415    1.0  0.44404  0.39120  0.74443  1.0000
  Sn  Sn2416    1.0  0.44404  0.44213  0.82777  1.0000
  Sn  Sn2417    1.0  0.55596  0.39120  0.67223  1.0000
  Sn  Sn2418    1.0  0.46977  0.44445  0.72597  1.0000
  Sn  Sn2419    1.0  0.53023  0.38888  0.77403  1.0000
  Sn  Sn2420    1.0  0.53023  0.44445  0.69070  1.0000
  Sn  Sn2421    1.0  0.46977  0.38888  0.80930  1.0000
  Sn  Sn2422    1.0  0.54120  0.36112  0.72597  1.0000
  Sn  Sn2423    1.0  0.45880  0.47222  0.77403  1.0000
  Sn  Sn2424    1.0  0.45880  0.36112  0.69070  1.0000
  Sn  Sn2425    1.0  0.54120  0.47222  0.80930  1.0000
  Sn  Sn2426    1.0  0.42857  0.46762  0.70833  1.0000
  Sn  Sn2427    1.0  0.42857  0.36572  0.79167  1.0000
  Sn  Sn2428    1.0  0.50000  0.38428  0.70833  1.0000
  Sn  Sn2429    1.0  0.50000  0.44905  0.79167  1.0000
  Sn  Sn2430    1.0  0.48453  0.35880  0.92223  1.0000
  Sn  Sn2431    1.0  0.51547  0.47453  0.91110  1.0000
  Sn  Sn2432    1.0  0.51547  0.35880  0.99443  1.0000
  Sn  Sn2433    1.0  0.48453  0.47453  0.83890  1.0000
  Sn  Sn2434    1.0  0.55596  0.44213  0.92223  1.0000
  Sn  Sn2435    1.0  0.44404  0.39120  0.91110  1.0000
  Sn  Sn2436    1.0  0.44404  0.44213  0.99443  1.0000
  Sn  Sn2437    1.0  0.55596  0.39120  0.83890  1.0000
  Sn  Sn2438    1.0  0.46977  0.44445  0.89263  1.0000
  Sn  Sn2439    1.0  0.53023  0.38888  0.94070  1.0000
  Sn  Sn2440    1.0  0.53023  0.44445  0.85737  1.0000
  Sn  Sn2441    1.0  0.46977  0.38888  0.97597  1.0000
  Sn  Sn2442    1.0  0.54120  0.36112  0.89263  1.0000
  Sn  Sn2443    1.0  0.45880  0.47222  0.94070  1.0000
  Sn  Sn2444    1.0  0.45880  0.36112  0.85737  1.0000
  Sn  Sn2445    1.0  0.54120  0.47222  0.97597  1.0000
  Sn  Sn2446    1.0  0.42857  0.46762  0.87500  1.0000
  Sn  Sn2447    1.0  0.42857  0.36572  0.95833  1.0000
  Sn  Sn2448    1.0  0.50000  0.38428  0.87500  1.0000
  Sn  Sn2449    1.0  0.50000  0.44905  0.95833  1.0000
  Sn  Sn2450    1.0  0.48453  0.52547  0.08890  1.0000
  Sn  Sn2451    1.0  0.51547  0.64120  0.07777  1.0000
  Sn  Sn2452    1.0  0.51547  0.52547  0.16110  1.0000
  Sn  Sn2453    1.0  0.48453  0.64120  0.00557  1.0000
  Sn  Sn2454    1.0  0.55596  0.60880  0.08890  1.0000
  Sn  Sn2455    1.0  0.44404  0.55787  0.07777  1.0000
  Sn  Sn2456    1.0  0.44404  0.60880  0.16110  1.0000
  Sn  Sn2457    1.0  0.55596  0.55787  0.00557  1.0000
  Sn  Sn2458    1.0  0.46977  0.61112  0.05930  1.0000
  Sn  Sn2459    1.0  0.53023  0.55555  0.10737  1.0000
  Sn  Sn2460    1.0  0.53023  0.61112  0.02403  1.0000
  Sn  Sn2461    1.0  0.46977  0.55555  0.14263  1.0000
  Sn  Sn2462    1.0  0.54120  0.52778  0.05930  1.0000
  Sn  Sn2463    1.0  0.45880  0.63888  0.10737  1.0000
  Sn  Sn2464    1.0  0.45880  0.52778  0.02403  1.0000
  Sn  Sn2465    1.0  0.54120  0.63888  0.14263  1.0000
  Sn  Sn2466    1.0  0.42857  0.63428  0.04167  1.0000
  Sn  Sn2467    1.0  0.42857  0.53238  0.12500  1.0000
  Sn  Sn2468    1.0  0.50000  0.55095  0.04167  1.0000
  Sn  Sn2469    1.0  0.50000  0.61572  0.12500  1.0000
  Sn  Sn2470    1.0  0.48453  0.52547  0.25557  1.0000
  Sn  Sn2471    1.0  0.51547  0.64120  0.24443  1.0000
  Sn  Sn2472    1.0  0.51547  0.52547  0.32777  1.0000
  Sn  Sn2473    1.0  0.48453  0.64120  0.17223  1.0000
  Sn  Sn2474    1.0  0.55596  0.60880  0.25557  1.0000
  Sn  Sn2475    1.0  0.44404  0.55787  0.24443  1.0000
  Sn  Sn2476    1.0  0.44404  0.60880  0.32777  1.0000
  Sn  Sn2477    1.0  0.55596  0.55787  0.17223  1.0000
  Sn  Sn2478    1.0  0.46977  0.61112  0.22597  1.0000
  Sn  Sn2479    1.0  0.53023  0.55555  0.27403  1.0000
  Sn  Sn2480    1.0  0.53023  0.61112  0.19070  1.0000
  Sn  Sn2481    1.0  0.46977  0.55555  0.30930  1.0000
  Sn  Sn2482    1.0  0.54120  0.52778  0.22597  1.0000
  Sn  Sn2483    1.0  0.45880  0.63888  0.27403  1.0000
  Sn  Sn2484    1.0  0.45880  0.52778  0.19070  1.0000
  Sn  Sn2485    1.0  0.54120  0.63888  0.30930  1.0000
  Sn  Sn2486    1.0  0.42857  0.53238  0.29167  1.0000
  Sn  Sn2487    1.0  0.50000  0.55095  0.20833  1.0000
  Sn  Sn2488    1.0  0.50000  0.61572  0.29167  1.0000
  Sn  Sn2489    1.0  0.48453  0.52547  0.42223  1.0000
  Sn  Sn2490    1.0  0.51547  0.64120  0.41110  1.0000
  Sn  Sn2491    1.0  0.51547  0.52547  0.49443  1.0000
  Sn  Sn2492    1.0  0.48453  0.64120  0.33890  1.0000
  Sn  Sn2493    1.0  0.55596  0.60880  0.42223  1.0000
  Sn  Sn2494    1.0  0.44404  0.55787  0.41110  1.0000
  Sn  Sn2495    1.0  0.44404  0.60880  0.49443  1.0000
  Sn  Sn2496    1.0  0.55596  0.55787  0.33890  1.0000
  Sn  Sn2497    1.0  0.46977  0.61112  0.39263  1.0000
  Sn  Sn2498    1.0  0.53023  0.55555  0.44070  1.0000
  Sn  Sn2499    1.0  0.53023  0.61112  0.35737  1.0000
  Sn  Sn2500    1.0  0.46977  0.55555  0.47597  1.0000
  Sn  Sn2501    1.0  0.54120  0.52778  0.39263  1.0000
  Sn  Sn2502    1.0  0.45880  0.63888  0.44070  1.0000
  Sn  Sn2503    1.0  0.45880  0.52778  0.35737  1.0000
  Sn  Sn2504    1.0  0.54120  0.63888  0.47597  1.0000
  Sn  Sn2505    1.0  0.42857  0.63428  0.37500  1.0000
  Sn  Sn2506    1.0  0.42857  0.53238  0.45833  1.0000
  Sn  Sn2507    1.0  0.50000  0.55095  0.37500  1.0000
  Sn  Sn2508    1.0  0.50000  0.61572  0.45833  1.0000
  Sn  Sn2509    1.0  0.48453  0.52547  0.58890  1.0000
  Sn  Sn2510    1.0  0.51547  0.64120  0.57777  1.0000
  Sn  Sn2511    1.0  0.51547  0.52547  0.66110  1.0000
  Sn  Sn2512    1.0  0.48453  0.64120  0.50557  1.0000
  Sn  Sn2513    1.0  0.55596  0.60880  0.58890  1.0000
  Sn  Sn2514    1.0  0.44404  0.55787  0.57777  1.0000
  Sn  Sn2515    1.0  0.44404  0.60880  0.66110  1.0000
  Sn  Sn2516    1.0  0.55596  0.55787  0.50557  1.0000
  Sn  Sn2517    1.0  0.46977  0.61112  0.55930  1.0000
  Sn  Sn2518    1.0  0.53023  0.55555  0.60737  1.0000
  Sn  Sn2519    1.0  0.53023  0.61112  0.52403  1.0000
  Sn  Sn2520    1.0  0.46977  0.55555  0.64263  1.0000
  Sn  Sn2521    1.0  0.54120  0.52778  0.55930  1.0000
  Sn  Sn2522    1.0  0.45880  0.63888  0.60737  1.0000
  Sn  Sn2523    1.0  0.45880  0.52778  0.52403  1.0000
  Sn  Sn2524    1.0  0.54120  0.63888  0.64263  1.0000
  Sn  Sn2525    1.0  0.42857  0.63428  0.54167  1.0000
  Sn  Sn2526    1.0  0.42857  0.53238  0.62500  1.0000
  Sn  Sn2527    1.0  0.50000  0.55095  0.54167  1.0000
  Sn  Sn2528    1.0  0.50000  0.61572  0.62500  1.0000
  Sn  Sn2529    1.0  0.48453  0.52547  0.75557  1.0000
  Sn  Sn2530    1.0  0.51547  0.64120  0.74443  1.0000
  Sn  Sn2531    1.0  0.51547  0.52547  0.82777  1.0000
  Sn  Sn2532    1.0  0.48453  0.64120  0.67223  1.0000
  Sn  Sn2533    1.0  0.55596  0.60880  0.75557  1.0000
  Sn  Sn2534    1.0  0.44404  0.55787  0.74443  1.0000
  Sn  Sn2535    1.0  0.44404  0.60880  0.82777  1.0000
  Sn  Sn2536    1.0  0.55596  0.55787  0.67223  1.0000
  Sn  Sn2537    1.0  0.46977  0.61112  0.72597  1.0000
  Sn  Sn2538    1.0  0.53023  0.55555  0.77403  1.0000
  Sn  Sn2539    1.0  0.53023  0.61112  0.69070  1.0000
  Sn  Sn2540    1.0  0.46977  0.55555  0.80930  1.0000
  Sn  Sn2541    1.0  0.54120  0.52778  0.72597  1.0000
  Sn  Sn2542    1.0  0.45880  0.63888  0.77403  1.0000
  Sn  Sn2543    1.0  0.45880  0.52778  0.69070  1.0000
  Sn  Sn2544    1.0  0.54120  0.63888  0.80930  1.0000
  Sn  Sn2545    1.0  0.42857  0.63428  0.70833  1.0000
  Sn  Sn2546    1.0  0.42857  0.53238  0.79167  1.0000
  Sn  Sn2547    1.0  0.50000  0.55095  0.70833  1.0000
  Sn  Sn2548    1.0  0.50000  0.61572  0.79167  1.0000
  Sn  Sn2549    1.0  0.48453  0.52547  0.92223  1.0000
  Sn  Sn2550    1.0  0.51547  0.64120  0.91110  1.0000
  Sn  Sn2551    1.0  0.51547  0.52547  0.99443  1.0000
  Sn  Sn2552    1.0  0.48453  0.64120  0.83890  1.0000
  Sn  Sn2553    1.0  0.55596  0.60880  0.92223  1.0000
  Sn  Sn2554    1.0  0.44404  0.55787  0.91110  1.0000
  Sn  Sn2555    1.0  0.44404  0.60880  0.99443  1.0000
  Sn  Sn2556    1.0  0.55596  0.55787  0.83890  1.0000
  Sn  Sn2557    1.0  0.46977  0.61112  0.89263  1.0000
  Sn  Sn2558    1.0  0.53023  0.55555  0.94070  1.0000
  Sn  Sn2559    1.0  0.53023  0.61112  0.85737  1.0000
  Sn  Sn2560    1.0  0.46977  0.55555  0.97597  1.0000
  Sn  Sn2561    1.0  0.54120  0.52778  0.89263  1.0000
  Sn  Sn2562    1.0  0.45880  0.63888  0.94070  1.0000
  Sn  Sn2563    1.0  0.45880  0.52778  0.85737  1.0000
  Sn  Sn2564    1.0  0.54120  0.63888  0.97597  1.0000
  Sn  Sn2565    1.0  0.42857  0.63428  0.87500  1.0000
  Sn  Sn2566    1.0  0.42857  0.53238  0.95833  1.0000
  Sn  Sn2567    1.0  0.50000  0.55095  0.87500  1.0000
  Sn  Sn2568    1.0  0.50000  0.61572  0.95833  1.0000
  Sn  Sn2569    1.0  0.48453  0.69213  0.08890  1.0000
  Sn  Sn2570    1.0  0.51547  0.80787  0.07777  1.0000
  Sn  Sn2571    1.0  0.51547  0.69213  0.16110  1.0000
  Sn  Sn2572    1.0  0.48453  0.80787  0.00557  1.0000
  Sn  Sn2573    1.0  0.44404  0.72453  0.07777  1.0000
  Sn  Sn2574    1.0  0.44404  0.77547  0.16110  1.0000
  Sn  Sn2575    1.0  0.55596  0.72453  0.00557  1.0000
  Sn  Sn2576    1.0  0.46977  0.77778  0.05930  1.0000
  Sn  Sn2577    1.0  0.53023  0.72222  0.10737  1.0000
  Sn  Sn2578    1.0  0.53023  0.77778  0.02403  1.0000
  Sn  Sn2579    1.0  0.46977  0.72222  0.14263  1.0000
  Sn  Sn2580    1.0  0.54120  0.69445  0.05930  1.0000
  Sn  Sn2581    1.0  0.45880  0.80555  0.10737  1.0000
  Sn  Sn2582    1.0  0.45880  0.69445  0.02403  1.0000
  Sn  Sn2583    1.0  0.54120  0.80555  0.14263  1.0000
  Sn  Sn2584    1.0  0.42857  0.80095  0.04167  1.0000
  Sn  Sn2585    1.0  0.42857  0.69905  0.12500  1.0000
  Sn  Sn2586    1.0  0.50000  0.71762  0.04167  1.0000
  Sn  Sn2587    1.0  0.50000  0.78238  0.12500  1.0000
  Sn  Sn2588    1.0  0.48453  0.69213  0.25557  1.0000
  Sn  Sn2589    1.0  0.51547  0.80787  0.24443  1.0000
  Sn  Sn2590    1.0  0.48453  0.80787  0.17223  1.0000
  Sn  Sn2591    1.0  0.55596  0.77547  0.25557  1.0000
  Sn  Sn2592    1.0  0.44404  0.72453  0.24443  1.0000
  Sn  Sn2593    1.0  0.44404  0.77547  0.32777  1.0000
  Sn  Sn2594    1.0  0.55596  0.72453  0.17223  1.0000
  Sn  Sn2595    1.0  0.46977  0.77778  0.22597  1.0000
  Sn  Sn2596    1.0  0.53023  0.72222  0.27403  1.0000
  Sn  Sn2597    1.0  0.53023  0.77778  0.19070  1.0000
  Sn  Sn2598    1.0  0.46977  0.72222  0.30930  1.0000
  Sn  Sn2599    1.0  0.54120  0.69445  0.22597  1.0000
  Sn  Sn2600    1.0  0.45880  0.80555  0.27403  1.0000
  Sn  Sn2601    1.0  0.45880  0.69445  0.19070  1.0000
  Sn  Sn2602    1.0  0.54120  0.80555  0.30930  1.0000
  Sn  Sn2603    1.0  0.42857  0.80095  0.20833  1.0000
  Sn  Sn2604    1.0  0.42857  0.69905  0.29167  1.0000
  Sn  Sn2605    1.0  0.50000  0.71762  0.20833  1.0000
  Sn  Sn2606    1.0  0.50000  0.78238  0.29167  1.0000
  Sn  Sn2607    1.0  0.48453  0.69213  0.42223  1.0000
  Sn  Sn2608    1.0  0.51547  0.80787  0.41110  1.0000
  Sn  Sn2609    1.0  0.51547  0.69213  0.49443  1.0000
  Sn  Sn2610    1.0  0.48453  0.80787  0.33890  1.0000
  Sn  Sn2611    1.0  0.55596  0.77547  0.42223  1.0000
  Sn  Sn2612    1.0  0.44404  0.72453  0.41110  1.0000
  Sn  Sn2613    1.0  0.44404  0.77547  0.49443  1.0000
  Sn  Sn2614    1.0  0.55596  0.72453  0.33890  1.0000
  Sn  Sn2615    1.0  0.46977  0.77778  0.39263  1.0000
  Sn  Sn2616    1.0  0.53023  0.72222  0.44070  1.0000
  Sn  Sn2617    1.0  0.53023  0.77778  0.35737  1.0000
  Sn  Sn2618    1.0  0.46977  0.72222  0.47597  1.0000
  Sn  Sn2619    1.0  0.54120  0.69445  0.39263  1.0000
  Sn  Sn2620    1.0  0.45880  0.80555  0.44070  1.0000
  Sn  Sn2621    1.0  0.45880  0.69445  0.35737  1.0000
  Sn  Sn2622    1.0  0.54120  0.80555  0.47597  1.0000
  Sn  Sn2623    1.0  0.42857  0.80095  0.37500  1.0000
  Sn  Sn2624    1.0  0.42857  0.69905  0.45833  1.0000
  Sn  Sn2625    1.0  0.50000  0.71762  0.37500  1.0000
  Sn  Sn2626    1.0  0.50000  0.78238  0.45833  1.0000
  Sn  Sn2627    1.0  0.48453  0.69213  0.58890  1.0000
  Sn  Sn2628    1.0  0.51547  0.80787  0.57777  1.0000
  Sn  Sn2629    1.0  0.51547  0.69213  0.66110  1.0000
  Sn  Sn2630    1.0  0.48453  0.80787  0.50557  1.0000
  Sn  Sn2631    1.0  0.44404  0.77547  0.66110  1.0000
  Sn  Sn2632    1.0  0.55596  0.72453  0.50557  1.0000
  Sn  Sn2633    1.0  0.46977  0.77778  0.55930  1.0000
  Sn  Sn2634    1.0  0.53023  0.72222  0.60737  1.0000
  Sn  Sn2635    1.0  0.53023  0.77778  0.52403  1.0000
  Sn  Sn2636    1.0  0.46977  0.72222  0.64263  1.0000
  Sn  Sn2637    1.0  0.54120  0.69445  0.55930  1.0000
  Sn  Sn2638    1.0  0.45880  0.80555  0.60737  1.0000
  Sn  Sn2639    1.0  0.45880  0.69445  0.52403  1.0000
  Sn  Sn2640    1.0  0.54120  0.80555  0.64263  1.0000
  Sn  Sn2641    1.0  0.42857  0.80095  0.54167  1.0000
  Sn  Sn2642    1.0  0.42857  0.69905  0.62500  1.0000
  Sn  Sn2643    1.0  0.50000  0.71762  0.54167  1.0000
  Sn  Sn2644    1.0  0.50000  0.78238  0.62500  1.0000
  Sn  Sn2645    1.0  0.48453  0.69213  0.75557  1.0000
  Sn  Sn2646    1.0  0.51547  0.80787  0.74443  1.0000
  Sn  Sn2647    1.0  0.51547  0.69213  0.82777  1.0000
  Sn  Sn2648    1.0  0.48453  0.80787  0.67223  1.0000
  Sn  Sn2649    1.0  0.55596  0.77547  0.75557  1.0000
  Sn  Sn2650    1.0  0.44404  0.72453  0.74443  1.0000
  Sn  Sn2651    1.0  0.44404  0.77547  0.82777  1.0000
  Sn  Sn2652    1.0  0.55596  0.72453  0.67223  1.0000
  Sn  Sn2653    1.0  0.53023  0.72222  0.77403  1.0000
  Sn  Sn2654    1.0  0.53023  0.77778  0.69070  1.0000
  Sn  Sn2655    1.0  0.46977  0.72222  0.80930  1.0000
  Sn  Sn2656    1.0  0.54120  0.69445  0.72597  1.0000
  Sn  Sn2657    1.0  0.45880  0.80555  0.77403  1.0000
  Sn  Sn2658    1.0  0.45880  0.69445  0.69070  1.0000
  Sn  Sn2659    1.0  0.54120  0.80555  0.80930  1.0000
  Sn  Sn2660    1.0  0.42857  0.80095  0.70833  1.0000
  Sn  Sn2661    1.0  0.42857  0.69905  0.79167  1.0000
  Sn  Sn2662    1.0  0.50000  0.71762  0.70833  1.0000
  Sn  Sn2663    1.0  0.50000  0.78238  0.79167  1.0000
  Sn  Sn2664    1.0  0.48453  0.69213  0.92223  1.0000
  Sn  Sn2665    1.0  0.51547  0.80787  0.91110  1.0000
  Sn  Sn2666    1.0  0.51547  0.69213  0.99443  1.0000
  Sn  Sn2667    1.0  0.48453  0.80787  0.83890  1.0000
  Sn  Sn2668    1.0  0.55596  0.77547  0.92223  1.0000
  Sn  Sn2669    1.0  0.44404  0.72453  0.91110  1.0000
  Sn  Sn2670    1.0  0.44404  0.77547  0.99443  1.0000
  Sn  Sn2671    1.0  0.55596  0.72453  0.83890  1.0000
  Sn  Sn2672    1.0  0.46977  0.77778  0.89263  1.0000
  Sn  Sn2673    1.0  0.53023  0.72222  0.94070  1.0000
  Sn  Sn2674    1.0  0.53023  0.77778  0.85737  1.0000
  Sn  Sn2675    1.0  0.46977  0.72222  0.97597  1.0000
  Sn  Sn2676    1.0  0.54120  0.69445  0.89263  1.0000
  Sn  Sn2677    1.0  0.45880  0.80555  0.94070  1.0000
  Sn  Sn2678    1.0  0.45880  0.69445  0.85737  1.0000
  Sn  Sn2679    1.0  0.54120  0.80555  0.97597  1.0000
  Sn  Sn2680    1.0  0.42857  0.80095  0.87500  1.0000
  Sn  Sn2681    1.0  0.42857  0.69905  0.95833  1.0000
  Sn  Sn2682    1.0  0.50000  0.71762  0.87500  1.0000
  Sn  Sn2683    1.0  0.50000  0.78238  0.95833  1.0000
  Sn  Sn2684    1.0  0.48453  0.85880  0.08890  1.0000
  Sn  Sn2685    1.0  0.51547  0.97453  0.07777  1.0000
  Sn  Sn2686    1.0  0.51547  0.85880  0.16110  1.0000
  Sn  Sn2687    1.0  0.48453  0.97453  0.00557  1.0000
  Sn  Sn2688    1.0  0.55596  0.94213  0.08890  1.0000
  Sn  Sn2689    1.0  0.44404  0.89120  0.07777  1.0000
  Sn  Sn2690    1.0  0.44404  0.94213  0.16110  1.0000
  Sn  Sn2691    1.0  0.55596  0.89120  0.00557  1.0000
  Sn  Sn2692    1.0  0.46977  0.94445  0.05930  1.0000
  Sn  Sn2693    1.0  0.53023  0.88888  0.10737  1.0000
  Sn  Sn2694    1.0  0.53023  0.94445  0.02403  1.0000
  Sn  Sn2695    1.0  0.46977  0.88888  0.14263  1.0000
  Sn  Sn2696    1.0  0.54120  0.86112  0.05930  1.0000
  Sn  Sn2697    1.0  0.45880  0.97222  0.10737  1.0000
  Sn  Sn2698    1.0  0.45880  0.86112  0.02403  1.0000
  Sn  Sn2699    1.0  0.54120  0.97222  0.14263  1.0000
  Sn  Sn2700    1.0  0.42857  0.96762  0.04167  1.0000
  Sn  Sn2701    1.0  0.42857  0.86572  0.12500  1.0000
  Sn  Sn2702    1.0  0.50000  0.88428  0.04167  1.0000
  Sn  Sn2703    1.0  0.50000  0.94905  0.12500  1.0000
  Sn  Sn2704    1.0  0.48453  0.85880  0.25557  1.0000
  Sn  Sn2705    1.0  0.51547  0.97453  0.24443  1.0000
  Sn  Sn2706    1.0  0.51547  0.85880  0.32777  1.0000
  Sn  Sn2707    1.0  0.48453  0.97453  0.17223  1.0000
  Sn  Sn2708    1.0  0.55596  0.94213  0.25557  1.0000
  Sn  Sn2709    1.0  0.44404  0.89120  0.24443  1.0000
  Sn  Sn2710    1.0  0.44404  0.94213  0.32777  1.0000
  Sn  Sn2711    1.0  0.55596  0.89120  0.17223  1.0000
  Sn  Sn2712    1.0  0.46977  0.94445  0.22597  1.0000
  Sn  Sn2713    1.0  0.53023  0.88888  0.27403  1.0000
  Sn  Sn2714    1.0  0.53023  0.94445  0.19070  1.0000
  Sn  Sn2715    1.0  0.46977  0.88888  0.30930  1.0000
  Sn  Sn2716    1.0  0.54120  0.86112  0.22597  1.0000
  Sn  Sn2717    1.0  0.45880  0.97222  0.27403  1.0000
  Sn  Sn2718    1.0  0.45880  0.86112  0.19070  1.0000
  Sn  Sn2719    1.0  0.54120  0.97222  0.30930  1.0000
  Sn  Sn2720    1.0  0.42857  0.96762  0.20833  1.0000
  Sn  Sn2721    1.0  0.42857  0.86572  0.29167  1.0000
  Sn  Sn2722    1.0  0.50000  0.88428  0.20833  1.0000
  Sn  Sn2723    1.0  0.50000  0.94905  0.29167  1.0000
  Sn  Sn2724    1.0  0.48453  0.85880  0.42223  1.0000
  Sn  Sn2725    1.0  0.51547  0.97453  0.41110  1.0000
  Sn  Sn2726    1.0  0.51547  0.85880  0.49443  1.0000
  Sn  Sn2727    1.0  0.48453  0.97453  0.33890  1.0000
  Sn  Sn2728    1.0  0.55596  0.94213  0.42223  1.0000
  Sn  Sn2729    1.0  0.44404  0.89120  0.41110  1.0000
  Sn  Sn2730    1.0  0.44404  0.94213  0.49443  1.0000
  Sn  Sn2731    1.0  0.55596  0.89120  0.33890  1.0000
  Sn  Sn2732    1.0  0.46977  0.94445  0.39263  1.0000
  Sn  Sn2733    1.0  0.53023  0.88888  0.44070  1.0000
  Sn  Sn2734    1.0  0.53023  0.94445  0.35737  1.0000
  Sn  Sn2735    1.0  0.46977  0.88888  0.47597  1.0000
  Sn  Sn2736    1.0  0.54120  0.86112  0.39263  1.0000
  Sn  Sn2737    1.0  0.45880  0.97222  0.44070  1.0000
  Sn  Sn2738    1.0  0.45880  0.86112  0.35737  1.0000
  Sn  Sn2739    1.0  0.54120  0.97222  0.47597  1.0000
  Sn  Sn2740    1.0  0.42857  0.96762  0.37500  1.0000
  Sn  Sn2741    1.0  0.50000  0.88428  0.37500  1.0000
  Sn  Sn2742    1.0  0.50000  0.94905  0.45833  1.0000
  Sn  Sn2743    1.0  0.48453  0.85880  0.58890  1.0000
  Sn  Sn2744    1.0  0.51547  0.97453  0.57777  1.0000
  Sn  Sn2745    1.0  0.51547  0.85880  0.66110  1.0000
  Sn  Sn2746    1.0  0.48453  0.97453  0.50557  1.0000
  Sn  Sn2747    1.0  0.55596  0.94213  0.58890  1.0000
  Sn  Sn2748    1.0  0.44404  0.89120  0.57777  1.0000
  Sn  Sn2749    1.0  0.44404  0.94213  0.66110  1.0000
  Sn  Sn2750    1.0  0.55596  0.89120  0.50557  1.0000
  Sn  Sn2751    1.0  0.46977  0.94445  0.55930  1.0000
  Sn  Sn2752    1.0  0.53023  0.88888  0.60737  1.0000
  Sn  Sn2753    1.0  0.53023  0.94445  0.52403  1.0000
  Sn  Sn2754    1.0  0.46977  0.88888  0.64263  1.0000
  Sn  Sn2755    1.0  0.54120  0.86112  0.55930  1.0000
  Sn  Sn2756    1.0  0.45880  0.97222  0.60737  1.0000
  Sn  Sn2757    1.0  0.45880  0.86112  0.52403  1.0000
  Sn  Sn2758    1.0  0.54120  0.97222  0.64263  1.0000
  Sn  Sn2759    1.0  0.42857  0.96762  0.54167  1.0000
  Sn  Sn2760    1.0  0.42857  0.86572  0.62500  1.0000
  Sn  Sn2761    1.0  0.50000  0.88428  0.54167  1.0000
  Sn  Sn2762    1.0  0.50000  0.94905  0.62500  1.0000
  Sn  Sn2763    1.0  0.48453  0.85880  0.75557  1.0000
  Sn  Sn2764    1.0  0.51547  0.97453  0.74443  1.0000
  Sn  Sn2765    1.0  0.51547  0.85880  0.82777  1.0000
  Sn  Sn2766    1.0  0.48453  0.97453  0.67223  1.0000
  Sn  Sn2767    1.0  0.55596  0.94213  0.75557  1.0000
  Sn  Sn2768    1.0  0.44404  0.94213  0.82777  1.0000
  Sn  Sn2769    1.0  0.55596  0.89120  0.67223  1.0000
  Sn  Sn2770    1.0  0.46977  0.94445  0.72597  1.0000
  Sn  Sn2771    1.0  0.53023  0.94445  0.69070  1.0000
  Sn  Sn2772    1.0  0.46977  0.88888  0.80930  1.0000
  Sn  Sn2773    1.0  0.54120  0.86112  0.72597  1.0000
  Sn  Sn2774    1.0  0.45880  0.97222  0.77403  1.0000
  Sn  Sn2775    1.0  0.45880  0.86112  0.69070  1.0000
  Sn  Sn2776    1.0  0.54120  0.97222  0.80930  1.0000
  Sn  Sn2777    1.0  0.42857  0.96762  0.70833  1.0000
  Sn  Sn2778    1.0  0.42857  0.86572  0.79167  1.0000
  Sn  Sn2779    1.0  0.50000  0.88428  0.70833  1.0000
  Sn  Sn2780    1.0  0.50000  0.94905  0.79167  1.0000
  Sn  Sn2781    1.0  0.51547  0.97453  0.91110  1.0000
  Sn  Sn2782    1.0  0.51547  0.85880  0.99443  1.0000
  Sn  Sn2783    1.0  0.48453  0.97453  0.83890  1.0000
  Sn  Sn2784    1.0  0.55596  0.94213  0.92223  1.0000
  Sn  Sn2785    1.0  0.44404  0.89120  0.91110  1.0000
  Sn  Sn2786    1.0  0.44404  0.94213  0.99443  1.0000
  Sn  Sn2787    1.0  0.55596  0.89120  0.83890  1.0000
  Sn  Sn2788    1.0  0.46977  0.94445  0.89263  1.0000
  Sn  Sn2789    1.0  0.53023  0.88888  0.94070  1.0000
  Sn  Sn2790    1.0  0.53023  0.94445  0.85737  1.0000
  Sn  Sn2791    1.0  0.46977  0.88888  0.97597  1.0000
  Sn  Sn2792    1.0  0.54120  0.86112  0.89263  1.0000
  Sn  Sn2793    1.0  0.45880  0.97222  0.94070  1.0000
  Sn  Sn2794    1.0  0.45880  0.86112  0.85737  1.0000
  Sn  Sn2795    1.0  0.54120  0.97222  0.97597  1.0000
  Sn  Sn2796    1.0  0.42857  0.96762  0.87500  1.0000
  Sn  Sn2797    1.0  0.42857  0.86572  0.95833  1.0000
  Sn  Sn2798    1.0  0.50000  0.88428  0.87500  1.0000
  Sn  Sn2799    1.0  0.50000  0.94905  0.95833  1.0000
  Sn  Sn2800    1.0  0.62739  0.02547  0.08890  1.0000
  Sn  Sn2801    1.0  0.65833  0.14120  0.07777  1.0000
  Sn  Sn2802    1.0  0.65833  0.02547  0.16110  1.0000
  Sn  Sn2803    1.0  0.62739  0.14120  0.00557  1.0000
  Sn  Sn2804    1.0  0.69881  0.10880  0.08890  1.0000
  Sn  Sn2805    1.0  0.58690  0.05787  0.07777  1.0000
  Sn  Sn2806    1.0  0.58690  0.10880  0.16110  1.0000
  Sn  Sn2807    1.0  0.69881  0.05787  0.00557  1.0000
  Sn  Sn2808    1.0  0.61263  0.11112  0.05930  1.0000
  Sn  Sn2809    1.0  0.67309  0.05555  0.10737  1.0000
  Sn  Sn2810    1.0  0.67309  0.11112  0.02403  1.0000
  Sn  Sn2811    1.0  0.61263  0.05555  0.14263  1.0000
  Sn  Sn2812    1.0  0.68406  0.02778  0.05930  1.0000
  Sn  Sn2813    1.0  0.60166  0.13888  0.10737  1.0000
  Sn  Sn2814    1.0  0.60166  0.02778  0.02403  1.0000
  Sn  Sn2815    1.0  0.68406  0.13888  0.14263  1.0000
  Sn  Sn2816    1.0  0.57143  0.13428  0.04167  1.0000
  Sn  Sn2817    1.0  0.57143  0.03238  0.12500  1.0000
  Sn  Sn2818    1.0  0.64286  0.05095  0.04167  1.0000
  Sn  Sn2819    1.0  0.64286  0.11572  0.12500  1.0000
  Sn  Sn2820    1.0  0.62739  0.02547  0.25557  1.0000
  Sn  Sn2821    1.0  0.65833  0.14120  0.24443  1.0000
  Sn  Sn2822    1.0  0.65833  0.02547  0.32777  1.0000
  Sn  Sn2823    1.0  0.62739  0.14120  0.17223  1.0000
  Sn  Sn2824    1.0  0.69881  0.10880  0.25557  1.0000
  Sn  Sn2825    1.0  0.58690  0.05787  0.24443  1.0000
  Sn  Sn2826    1.0  0.58690  0.10880  0.32777  1.0000
  Sn  Sn2827    1.0  0.69881  0.05787  0.17223  1.0000
  Sn  Sn2828    1.0  0.61263  0.11112  0.22597  1.0000
  Sn  Sn2829    1.0  0.67309  0.05555  0.27403  1.0000
  Sn  Sn2830    1.0  0.67309  0.11112  0.19070  1.0000
  Sn  Sn2831    1.0  0.61263  0.05555  0.30930  1.0000
  Sn  Sn2832    1.0  0.68406  0.02778  0.22597  1.0000
  Sn  Sn2833    1.0  0.60166  0.13888  0.27403  1.0000
  Sn  Sn2834    1.0  0.60166  0.02778  0.19070  1.0000
  Sn  Sn2835    1.0  0.68406  0.13888  0.30930  1.0000
  Sn  Sn2836    1.0  0.57143  0.13428  0.20833  1.0000
  Sn  Sn2837    1.0  0.57143  0.03238  0.29167  1.0000
  Sn  Sn2838    1.0  0.64286  0.05095  0.20833  1.0000
  Sn  Sn2839    1.0  0.64286  0.11572  0.29167  1.0000
  Sn  Sn2840    1.0  0.62739  0.02547  0.42223  1.0000
  Sn  Sn2841    1.0  0.65833  0.14120  0.41110  1.0000
  Sn  Sn2842    1.0  0.65833  0.02547  0.49443  1.0000
  Sn  Sn2843    1.0  0.62739  0.14120  0.33890  1.0000
  Sn  Sn2844    1.0  0.69881  0.10880  0.42223  1.0000
  Sn  Sn2845    1.0  0.58690  0.05787  0.41110  1.0000
  Sn  Sn2846    1.0  0.58690  0.10880  0.49443  1.0000
  Sn  Sn2847    1.0  0.69881  0.05787  0.33890  1.0000
  Sn  Sn2848    1.0  0.61263  0.11112  0.39263  1.0000
  Sn  Sn2849    1.0  0.67309  0.05555  0.44070  1.0000
  Sn  Sn2850    1.0  0.67309  0.11112  0.35737  1.0000
  Sn  Sn2851    1.0  0.61263  0.05555  0.47597  1.0000
  Sn  Sn2852    1.0  0.68406  0.02778  0.39263  1.0000
  Sn  Sn2853    1.0  0.60166  0.13888  0.44070  1.0000
  Sn  Sn2854    1.0  0.60166  0.02778  0.35737  1.0000
  Sn  Sn2855    1.0  0.68406  0.13888  0.47597  1.0000
  Sn  Sn2856    1.0  0.57143  0.13428  0.37500  1.0000
  Sn  Sn2857    1.0  0.57143  0.03238  0.45833  1.0000
  Sn  Sn2858    1.0  0.64286  0.05095  0.37500  1.0000
  Sn  Sn2859    1.0  0.64286  0.11572  0.45833  1.0000
  Sn  Sn2860    1.0  0.62739  0.02547  0.58890  1.0000
  Sn  Sn2861    1.0  0.65833  0.14120  0.57777  1.0000
  Sn  Sn2862    1.0  0.65833  0.02547  0.66110  1.0000
  Sn  Sn2863    1.0  0.62739  0.14120  0.50557  1.0000
  Sn  Sn2864    1.0  0.69881  0.10880  0.58890  1.0000
  Sn  Sn2865    1.0  0.58690  0.05787  0.57777  1.0000
  Sn  Sn2866    1.0  0.58690  0.10880  0.66110  1.0000
  Sn  Sn2867    1.0  0.69881  0.05787  0.50557  1.0000
  Sn  Sn2868    1.0  0.61263  0.11112  0.55930  1.0000
  Sn  Sn2869    1.0  0.67309  0.05555  0.60737  1.0000
  Sn  Sn2870    1.0  0.67309  0.11112  0.52403  1.0000
  Sn  Sn2871    1.0  0.61263  0.05555  0.64263  1.0000
  Sn  Sn2872    1.0  0.68406  0.02778  0.55930  1.0000
  Sn  Sn2873    1.0  0.60166  0.13888  0.60737  1.0000
  Sn  Sn2874    1.0  0.60166  0.02778  0.52403  1.0000
  Sn  Sn2875    1.0  0.68406  0.13888  0.64263  1.0000
  Sn  Sn2876    1.0  0.57143  0.13428  0.54167  1.0000
  Sn  Sn2877    1.0  0.57143  0.03238  0.62500  1.0000
  Sn  Sn2878    1.0  0.64286  0.05095  0.54167  1.0000
  Sn  Sn2879    1.0  0.64286  0.11572  0.62500  1.0000
  Sn  Sn2880    1.0  0.65833  0.14120  0.74443  1.0000
  Sn  Sn2881    1.0  0.65833  0.02547  0.82777  1.0000
  Sn  Sn2882    1.0  0.62739  0.14120  0.67223  1.0000
  Sn  Sn2883    1.0  0.69881  0.10880  0.75557  1.0000
  Sn  Sn2884    1.0  0.58690  0.05787  0.74443  1.0000
  Sn  Sn2885    1.0  0.58690  0.10880  0.82777  1.0000
  Sn  Sn2886    1.0  0.69881  0.05787  0.67223  1.0000
  Sn  Sn2887    1.0  0.61263  0.11112  0.72597  1.0000
  Sn  Sn2888    1.0  0.67309  0.05555  0.77403  1.0000
  Sn  Sn2889    1.0  0.67309  0.11112  0.69070  1.0000
  Sn  Sn2890    1.0  0.61263  0.05555  0.80930  1.0000
  Sn  Sn2891    1.0  0.68406  0.02778  0.72597  1.0000
  Sn  Sn2892    1.0  0.60166  0.13888  0.77403  1.0000
  Sn  Sn2893    1.0  0.60166  0.02778  0.69070  1.0000
  Sn  Sn2894    1.0  0.68406  0.13888  0.80930  1.0000
  Sn  Sn2895    1.0  0.57143  0.13428  0.70833  1.0000
  Sn  Sn2896    1.0  0.57143  0.03238  0.79167  1.0000
  Sn  Sn2897    1.0  0.64286  0.05095  0.70833  1.0000
  Sn  Sn2898    1.0  0.64286  0.11572  0.79167  1.0000
  Sn  Sn2899    1.0  0.62739  0.02547  0.92223  1.0000
  Sn  Sn2900    1.0  0.65833  0.14120  0.91110  1.0000
  Sn  Sn2901    1.0  0.65833  0.02547  0.99443  1.0000
  Sn  Sn2902    1.0  0.62739  0.14120  0.83890  1.0000
  Sn  Sn2903    1.0  0.69881  0.10880  0.92223  1.0000
  Sn  Sn2904    1.0  0.58690  0.05787  0.91110  1.0000
  Sn  Sn2905    1.0  0.58690  0.10880  0.99443  1.0000
  Sn  Sn2906    1.0  0.69881  0.05787  0.83890  1.0000
  Sn  Sn2907    1.0  0.61263  0.11112  0.89263  1.0000
  Sn  Sn2908    1.0  0.67309  0.05555  0.94070  1.0000
  Sn  Sn2909    1.0  0.67309  0.11112  0.85737  1.0000
  Sn  Sn2910    1.0  0.61263  0.05555  0.97597  1.0000
  Sn  Sn2911    1.0  0.68406  0.02778  0.89263  1.0000
  Sn  Sn2912    1.0  0.60166  0.13888  0.94070  1.0000
  Sn  Sn2913    1.0  0.60166  0.02778  0.85737  1.0000
  Sn  Sn2914    1.0  0.68406  0.13888  0.97597  1.0000
  Sn  Sn2915    1.0  0.57143  0.13428  0.87500  1.0000
  Sn  Sn2916    1.0  0.57143  0.03238  0.95833  1.0000
  Sn  Sn2917    1.0  0.64286  0.11572  0.95833  1.0000
  Sn  Sn2918    1.0  0.62739  0.19213  0.08890  1.0000
  Sn  Sn2919    1.0  0.65833  0.30787  0.07777  1.0000
  Sn  Sn2920    1.0  0.65833  0.19213  0.16110  1.0000
  Sn  Sn2921    1.0  0.62739  0.30787  0.00557  1.0000
  Sn  Sn2922    1.0  0.69881  0.27547  0.08890  1.0000
  Sn  Sn2923    1.0  0.58690  0.22453  0.07777  1.0000
  Sn  Sn2924    1.0  0.58690  0.27547  0.16110  1.0000
  Sn  Sn2925    1.0  0.69881  0.22453  0.00557  1.0000
  Sn  Sn2926    1.0  0.61263  0.27778  0.05930  1.0000
  Sn  Sn2927    1.0  0.67309  0.22222  0.10737  1.0000
  Sn  Sn2928    1.0  0.67309  0.27778  0.02403  1.0000
  Sn  Sn2929    1.0  0.61263  0.22222  0.14263  1.0000
  Sn  Sn2930    1.0  0.68406  0.19445  0.05930  1.0000
  Sn  Sn2931    1.0  0.60166  0.30555  0.10737  1.0000
  Sn  Sn2932    1.0  0.60166  0.19445  0.02403  1.0000
  Sn  Sn2933    1.0  0.68406  0.30555  0.14263  1.0000
  Sn  Sn2934    1.0  0.57143  0.30095  0.04167  1.0000
  Sn  Sn2935    1.0  0.57143  0.19905  0.12500  1.0000
  Sn  Sn2936    1.0  0.64286  0.21762  0.04167  1.0000
  Sn  Sn2937    1.0  0.64286  0.28238  0.12500  1.0000
  Sn  Sn2938    1.0  0.62739  0.19213  0.25557  1.0000
  Sn  Sn2939    1.0  0.65833  0.30787  0.24443  1.0000
  Sn  Sn2940    1.0  0.65833  0.19213  0.32777  1.0000
  Sn  Sn2941    1.0  0.62739  0.30787  0.17223  1.0000
  Sn  Sn2942    1.0  0.69881  0.27547  0.25557  1.0000
  Sn  Sn2943    1.0  0.58690  0.22453  0.24443  1.0000
  Sn  Sn2944    1.0  0.69881  0.22453  0.17223  1.0000
  Sn  Sn2945    1.0  0.61263  0.27778  0.22597  1.0000
  Sn  Sn2946    1.0  0.67309  0.22222  0.27403  1.0000
  Sn  Sn2947    1.0  0.67309  0.27778  0.19070  1.0000
  Sn  Sn2948    1.0  0.61263  0.22222  0.30930  1.0000
  Sn  Sn2949    1.0  0.68406  0.19445  0.22597  1.0000
  Sn  Sn2950    1.0  0.60166  0.30555  0.27403  1.0000
  Sn  Sn2951    1.0  0.60166  0.19445  0.19070  1.0000
  Sn  Sn2952    1.0  0.68406  0.30555  0.30930  1.0000
  Sn  Sn2953    1.0  0.57143  0.30095  0.20833  1.0000
  Sn  Sn2954    1.0  0.57143  0.19905  0.29167  1.0000
  Sn  Sn2955    1.0  0.64286  0.21762  0.20833  1.0000
  Sn  Sn2956    1.0  0.64286  0.28238  0.29167  1.0000
  Sn  Sn2957    1.0  0.62739  0.19213  0.42223  1.0000
  Sn  Sn2958    1.0  0.65833  0.30787  0.41110  1.0000
  Sn  Sn2959    1.0  0.65833  0.19213  0.49443  1.0000
  Sn  Sn2960    1.0  0.62739  0.30787  0.33890  1.0000
  Sn  Sn2961    1.0  0.69881  0.27547  0.42223  1.0000
  Sn  Sn2962    1.0  0.58690  0.22453  0.41110  1.0000
  Sn  Sn2963    1.0  0.58690  0.27547  0.49443  1.0000
  Sn  Sn2964    1.0  0.69881  0.22453  0.33890  1.0000
  Sn  Sn2965    1.0  0.61263  0.27778  0.39263  1.0000
  Sn  Sn2966    1.0  0.67309  0.22222  0.44070  1.0000
  Sn  Sn2967    1.0  0.67309  0.27778  0.35737  1.0000
  Sn  Sn2968    1.0  0.61263  0.22222  0.47597  1.0000
  Sn  Sn2969    1.0  0.68406  0.19445  0.39263  1.0000
  Sn  Sn2970    1.0  0.60166  0.30555  0.44070  1.0000
  Sn  Sn2971    1.0  0.60166  0.19445  0.35737  1.0000
  Sn  Sn2972    1.0  0.68406  0.30555  0.47597  1.0000
  Sn  Sn2973    1.0  0.57143  0.30095  0.37500  1.0000
  Sn  Sn2974    1.0  0.57143  0.19905  0.45833  1.0000
  Sn  Sn2975    1.0  0.64286  0.21762  0.37500  1.0000
  Sn  Sn2976    1.0  0.62739  0.19213  0.58890  1.0000
  Sn  Sn2977    1.0  0.65833  0.30787  0.57777  1.0000
  Sn  Sn2978    1.0  0.65833  0.19213  0.66110  1.0000
  Sn  Sn2979    1.0  0.62739  0.30787  0.50557  1.0000
  Sn  Sn2980    1.0  0.69881  0.27547  0.58890  1.0000
  Sn  Sn2981    1.0  0.58690  0.22453  0.57777  1.0000
  Sn  Sn2982    1.0  0.58690  0.27547  0.66110  1.0000
  Sn  Sn2983    1.0  0.69881  0.22453  0.50557  1.0000
  Sn  Sn2984    1.0  0.61263  0.27778  0.55930  1.0000
  Sn  Sn2985    1.0  0.67309  0.22222  0.60737  1.0000
  Sn  Sn2986    1.0  0.67309  0.27778  0.52403  1.0000
  Sn  Sn2987    1.0  0.61263  0.22222  0.64263  1.0000
  Sn  Sn2988    1.0  0.68406  0.19445  0.55930  1.0000
  Sn  Sn2989    1.0  0.60166  0.30555  0.60737  1.0000
  Sn  Sn2990    1.0  0.60166  0.19445  0.52403  1.0000
  Sn  Sn2991    1.0  0.68406  0.30555  0.64263  1.0000
  Sn  Sn2992    1.0  0.57143  0.30095  0.54167  1.0000
  Sn  Sn2993    1.0  0.57143  0.19905  0.62500  1.0000
  Sn  Sn2994    1.0  0.64286  0.21762  0.54167  1.0000
  Sn  Sn2995    1.0  0.64286  0.28238  0.62500  1.0000
  Sn  Sn2996    1.0  0.62739  0.19213  0.75557  1.0000
  Sn  Sn2997    1.0  0.65833  0.30787  0.74443  1.0000
  Sn  Sn2998    1.0  0.62739  0.30787  0.67223  1.0000
  Sn  Sn2999    1.0  0.69881  0.27547  0.75557  1.0000
  Sn  Sn3000    1.0  0.58690  0.22453  0.74443  1.0000
  Sn  Sn3001    1.0  0.58690  0.27547  0.82777  1.0000
  Sn  Sn3002    1.0  0.69881  0.22453  0.67223  1.0000
  Sn  Sn3003    1.0  0.61263  0.27778  0.72597  1.0000
  Sn  Sn3004    1.0  0.67309  0.22222  0.77403  1.0000
  Sn  Sn3005    1.0  0.67309  0.27778  0.69070  1.0000
  Sn  Sn3006    1.0  0.61263  0.22222  0.80930  1.0000
  Sn  Sn3007    1.0  0.68406  0.19445  0.72597  1.0000
  Sn  Sn3008    1.0  0.60166  0.30555  0.77403  1.0000
  Sn  Sn3009    1.0  0.60166  0.19445  0.69070  1.0000
  Sn  Sn3010    1.0  0.68406  0.30555  0.80930  1.0000
  Sn  Sn3011    1.0  0.57143  0.30095  0.70833  1.0000
  Sn  Sn3012    1.0  0.57143  0.19905  0.79167  1.0000
  Sn  Sn3013    1.0  0.64286  0.21762  0.70833  1.0000
  Sn  Sn3014    1.0  0.64286  0.28238  0.79167  1.0000
  Sn  Sn3015    1.0  0.65833  0.30787  0.91110  1.0000
  Sn  Sn3016    1.0  0.65833  0.19213  0.99443  1.0000
  Sn  Sn3017    1.0  0.62739  0.30787  0.83890  1.0000
  Sn  Sn3018    1.0  0.69881  0.27547  0.92223  1.0000
  Sn  Sn3019    1.0  0.58690  0.22453  0.91110  1.0000
  Sn  Sn3020    1.0  0.58690  0.27547  0.99443  1.0000
  Sn  Sn3021    1.0  0.69881  0.22453  0.83890  1.0000
  Sn  Sn3022    1.0  0.61263  0.27778  0.89263  1.0000
  Sn  Sn3023    1.0  0.67309  0.22222  0.94070  1.0000
  Sn  Sn3024    1.0  0.67309  0.27778  0.85737  1.0000
  Sn  Sn3025    1.0  0.61263  0.22222  0.97597  1.0000
  Sn  Sn3026    1.0  0.68406  0.19445  0.89263  1.0000
  Sn  Sn3027    1.0  0.60166  0.30555  0.94070  1.0000
  Sn  Sn3028    1.0  0.60166  0.19445  0.85737  1.0000
  Sn  Sn3029    1.0  0.68406  0.30555  0.97597  1.0000
  Sn  Sn3030    1.0  0.57143  0.30095  0.87500  1.0000
  Sn  Sn3031    1.0  0.57143  0.19905  0.95833  1.0000
  Sn  Sn3032    1.0  0.64286  0.21762  0.87500  1.0000
  Sn  Sn3033    1.0  0.64286  0.28238  0.95833  1.0000
  Sn  Sn3034    1.0  0.62739  0.35880  0.08890  1.0000
  Sn  Sn3035    1.0  0.65833  0.47453  0.07777  1.0000
  Sn  Sn3036    1.0  0.65833  0.35880  0.16110  1.0000
  Sn  Sn3037    1.0  0.62739  0.47453  0.00557  1.0000
  Sn  Sn3038    1.0  0.69881  0.44213  0.08890  1.0000
  Sn  Sn3039    1.0  0.58690  0.39120  0.07777  1.0000
  Sn  Sn3040    1.0  0.58690  0.44213  0.16110  1.0000
  Sn  Sn3041    1.0  0.69881  0.39120  0.00557  1.0000
  Sn  Sn3042    1.0  0.61263  0.44445  0.05930  1.0000
  Sn  Sn3043    1.0  0.67309  0.38888  0.10737  1.0000
  Sn  Sn3044    1.0  0.67309  0.44445  0.02403  1.0000
  Sn  Sn3045    1.0  0.61263  0.38888  0.14263  1.0000
  Sn  Sn3046    1.0  0.68406  0.36112  0.05930  1.0000
  Sn  Sn3047    1.0  0.60166  0.47222  0.10737  1.0000
  Sn  Sn3048    1.0  0.60166  0.36112  0.02403  1.0000
  Sn  Sn3049    1.0  0.68406  0.47222  0.14263  1.0000
  Sn  Sn3050    1.0  0.57143  0.46762  0.04167  1.0000
  Sn  Sn3051    1.0  0.57143  0.36572  0.12500  1.0000
  Sn  Sn3052    1.0  0.64286  0.38428  0.04167  1.0000
  Sn  Sn3053    1.0  0.64286  0.44905  0.12500  1.0000
  Sn  Sn3054    1.0  0.62739  0.35880  0.25557  1.0000
  Sn  Sn3055    1.0  0.65833  0.47453  0.24443  1.0000
  Sn  Sn3056    1.0  0.65833  0.35880  0.32777  1.0000
  Sn  Sn3057    1.0  0.69881  0.44213  0.25557  1.0000
  Sn  Sn3058    1.0  0.58690  0.39120  0.24443  1.0000
  Sn  Sn3059    1.0  0.58690  0.44213  0.32777  1.0000
  Sn  Sn3060    1.0  0.69881  0.39120  0.17223  1.0000
  Sn  Sn3061    1.0  0.61263  0.44445  0.22597  1.0000
  Sn  Sn3062    1.0  0.67309  0.38888  0.27403  1.0000
  Sn  Sn3063    1.0  0.67309  0.44445  0.19070  1.0000
  Sn  Sn3064    1.0  0.61263  0.38888  0.30930  1.0000
  Sn  Sn3065    1.0  0.68406  0.36112  0.22597  1.0000
  Sn  Sn3066    1.0  0.60166  0.47222  0.27403  1.0000
  Sn  Sn3067    1.0  0.60166  0.36112  0.19070  1.0000
  Sn  Sn3068    1.0  0.68406  0.47222  0.30930  1.0000
  Sn  Sn3069    1.0  0.57143  0.46762  0.20833  1.0000
  Sn  Sn3070    1.0  0.57143  0.36572  0.29167  1.0000
  Sn  Sn3071    1.0  0.64286  0.38428  0.20833  1.0000
  Sn  Sn3072    1.0  0.64286  0.44905  0.29167  1.0000
  Sn  Sn3073    1.0  0.62739  0.35880  0.42223  1.0000
  Sn  Sn3074    1.0  0.65833  0.47453  0.41110  1.0000
  Sn  Sn3075    1.0  0.65833  0.35880  0.49443  1.0000
  Sn  Sn3076    1.0  0.62739  0.47453  0.33890  1.0000
  Sn  Sn3077    1.0  0.69881  0.44213  0.42223  1.0000
  Sn  Sn3078    1.0  0.58690  0.39120  0.41110  1.0000
  Sn  Sn3079    1.0  0.58690  0.44213  0.49443  1.0000
  Sn  Sn3080    1.0  0.69881  0.39120  0.33890  1.0000
  Sn  Sn3081    1.0  0.61263  0.44445  0.39263  1.0000
  Sn  Sn3082    1.0  0.67309  0.38888  0.44070  1.0000
  Sn  Sn3083    1.0  0.67309  0.44445  0.35737  1.0000
  Sn  Sn3084    1.0  0.61263  0.38888  0.47597  1.0000
  Sn  Sn3085    1.0  0.68406  0.36112  0.39263  1.0000
  Sn  Sn3086    1.0  0.60166  0.47222  0.44070  1.0000
  Sn  Sn3087    1.0  0.60166  0.36112  0.35737  1.0000
  Sn  Sn3088    1.0  0.68406  0.47222  0.47597  1.0000
  Sn  Sn3089    1.0  0.57143  0.46762  0.37500  1.0000
  Sn  Sn3090    1.0  0.57143  0.36572  0.45833  1.0000
  Sn  Sn3091    1.0  0.64286  0.38428  0.37500  1.0000
  Sn  Sn3092    1.0  0.64286  0.44905  0.45833  1.0000
  Sn  Sn3093    1.0  0.62739  0.35880  0.58890  1.0000
  Sn  Sn3094    1.0  0.65833  0.47453  0.57777  1.0000
  Sn  Sn3095    1.0  0.65833  0.35880  0.66110  1.0000
  Sn  Sn3096    1.0  0.62739  0.47453  0.50557  1.0000
  Sn  Sn3097    1.0  0.69881  0.44213  0.58890  1.0000
  Sn  Sn3098    1.0  0.69881  0.39120  0.50557  1.0000
  Sn  Sn3099    1.0  0.61263  0.44445  0.55930  1.0000
  Sn  Sn3100    1.0  0.67309  0.38888  0.60737  1.0000
  Sn  Sn3101    1.0  0.67309  0.44445  0.52403  1.0000
  Sn  Sn3102    1.0  0.61263  0.38888  0.64263  1.0000
  Sn  Sn3103    1.0  0.68406  0.36112  0.55930  1.0000
  Sn  Sn3104    1.0  0.60166  0.47222  0.60737  1.0000
  Sn  Sn3105    1.0  0.60166  0.36112  0.52403  1.0000
  Sn  Sn3106    1.0  0.68406  0.47222  0.64263  1.0000
  Sn  Sn3107    1.0  0.57143  0.46762  0.54167  1.0000
  Sn  Sn3108    1.0  0.57143  0.36572  0.62500  1.0000
  Sn  Sn3109    1.0  0.64286  0.38428  0.54167  1.0000
  Sn  Sn3110    1.0  0.64286  0.44905  0.62500  1.0000
  Sn  Sn3111    1.0  0.62739  0.35880  0.75557  1.0000
  Sn  Sn3112    1.0  0.65833  0.47453  0.74443  1.0000
  Sn  Sn3113    1.0  0.65833  0.35880  0.82777  1.0000
  Sn  Sn3114    1.0  0.62739  0.47453  0.67223  1.0000
  Sn  Sn3115    1.0  0.69881  0.44213  0.75557  1.0000
  Sn  Sn3116    1.0  0.58690  0.39120  0.74443  1.0000
  Sn  Sn3117    1.0  0.58690  0.44213  0.82777  1.0000
  Sn  Sn3118    1.0  0.69881  0.39120  0.67223  1.0000
  Sn  Sn3119    1.0  0.61263  0.44445  0.72597  1.0000
  Sn  Sn3120    1.0  0.67309  0.38888  0.77403  1.0000
  Sn  Sn3121    1.0  0.67309  0.44445  0.69070  1.0000
  Sn  Sn3122    1.0  0.61263  0.38888  0.80930  1.0000
  Sn  Sn3123    1.0  0.68406  0.36112  0.72597  1.0000
  Sn  Sn3124    1.0  0.60166  0.47222  0.77403  1.0000
  Sn  Sn3125    1.0  0.60166  0.36112  0.69070  1.0000
  Sn  Sn3126    1.0  0.68406  0.47222  0.80930  1.0000
  Sn  Sn3127    1.0  0.57143  0.46762  0.70833  1.0000
  Sn  Sn3128    1.0  0.57143  0.36572  0.79167  1.0000
  Sn  Sn3129    1.0  0.64286  0.38428  0.70833  1.0000
  Sn  Sn3130    1.0  0.64286  0.44905  0.79167  1.0000
  Sn  Sn3131    1.0  0.62739  0.35880  0.92223  1.0000
  Sn  Sn3132    1.0  0.65833  0.47453  0.91110  1.0000
  Sn  Sn3133    1.0  0.65833  0.35880  0.99443  1.0000
  Sn  Sn3134    1.0  0.62739  0.47453  0.83890  1.0000
  Sn  Sn3135    1.0  0.69881  0.44213  0.92223  1.0000
  Sn  Sn3136    1.0  0.58690  0.39120  0.91110  1.0000
  Sn  Sn3137    1.0  0.58690  0.44213  0.99443  1.0000
  Sn  Sn3138    1.0  0.69881  0.39120  0.83890  1.0000
  Sn  Sn3139    1.0  0.67309  0.38888  0.94070  1.0000
  Sn  Sn3140    1.0  0.67309  0.44445  0.85737  1.0000
  Sn  Sn3141    1.0  0.61263  0.38888  0.97597  1.0000
  Sn  Sn3142    1.0  0.68406  0.36112  0.89263  1.0000
  Sn  Sn3143    1.0  0.60166  0.47222  0.94070  1.0000
  Sn  Sn3144    1.0  0.60166  0.36112  0.85737  1.0000
  Sn  Sn3145    1.0  0.68406  0.47222  0.97597  1.0000
  Sn  Sn3146    1.0  0.57143  0.46762  0.87500  1.0000
  Sn  Sn3147    1.0  0.57143  0.36572  0.95833  1.0000
  Sn  Sn3148    1.0  0.64286  0.38428  0.87500  1.0000
  Sn  Sn3149    1.0  0.64286  0.44905  0.95833  1.0000
  Sn  Sn3150    1.0  0.62739  0.52547  0.08890  1.0000
  Sn  Sn3151    1.0  0.65833  0.64120  0.07777  1.0000
  Sn  Sn3152    1.0  0.65833  0.52547  0.16110  1.0000
  Sn  Sn3153    1.0  0.62739  0.64120  0.00557  1.0000
  Sn  Sn3154    1.0  0.58690  0.55787  0.07777  1.0000
  Sn  Sn3155    1.0  0.58690  0.60880  0.16110  1.0000
  Sn  Sn3156    1.0  0.69881  0.55787  0.00557  1.0000
  Sn  Sn3157    1.0  0.61263  0.61112  0.05930  1.0000
  Sn  Sn3158    1.0  0.67309  0.55555  0.10737  1.0000
  Sn  Sn3159    1.0  0.67309  0.61112  0.02403  1.0000
  Sn  Sn3160    1.0  0.61263  0.55555  0.14263  1.0000
  Sn  Sn3161    1.0  0.68406  0.52778  0.05930  1.0000
  Sn  Sn3162    1.0  0.60166  0.63888  0.10737  1.0000
  Sn  Sn3163    1.0  0.60166  0.52778  0.02403  1.0000
  Sn  Sn3164    1.0  0.68406  0.63888  0.14263  1.0000
  Sn  Sn3165    1.0  0.57143  0.63428  0.04167  1.0000
  Sn  Sn3166    1.0  0.57143  0.53238  0.12500  1.0000
  Sn  Sn3167    1.0  0.64286  0.55095  0.04167  1.0000
  Sn  Sn3168    1.0  0.64286  0.61572  0.12500  1.0000
  Sn  Sn3169    1.0  0.62739  0.52547  0.25557  1.0000
  Sn  Sn3170    1.0  0.65833  0.64120  0.24443  1.0000
  Sn  Sn3171    1.0  0.65833  0.52547  0.32777  1.0000
  Sn  Sn3172    1.0  0.62739  0.64120  0.17223  1.0000
  Sn  Sn3173    1.0  0.69881  0.60880  0.25557  1.0000
  Sn  Sn3174    1.0  0.58690  0.55787  0.24443  1.0000
  Sn  Sn3175    1.0  0.58690  0.60880  0.32777  1.0000
  Sn  Sn3176    1.0  0.61263  0.61112  0.22597  1.0000
  Sn  Sn3177    1.0  0.67309  0.55555  0.27403  1.0000
  Sn  Sn3178    1.0  0.67309  0.61112  0.19070  1.0000
  Sn  Sn3179    1.0  0.61263  0.55555  0.30930  1.0000
  Sn  Sn3180    1.0  0.68406  0.52778  0.22597  1.0000
  Sn  Sn3181    1.0  0.60166  0.63888  0.27403  1.0000
  Sn  Sn3182    1.0  0.60166  0.52778  0.19070  1.0000
  Sn  Sn3183    1.0  0.68406  0.63888  0.30930  1.0000
  Sn  Sn3184    1.0  0.57143  0.63428  0.20833  1.0000
  Sn  Sn3185    1.0  0.57143  0.53238  0.29167  1.0000
  Sn  Sn3186    1.0  0.64286  0.55095  0.20833  1.0000
  Sn  Sn3187    1.0  0.64286  0.61572  0.29167  1.0000
  Sn  Sn3188    1.0  0.62739  0.52547  0.42223  1.0000
  Sn  Sn3189    1.0  0.65833  0.64120  0.41110  1.0000
  Sn  Sn3190    1.0  0.65833  0.52547  0.49443  1.0000
  Sn  Sn3191    1.0  0.69881  0.60880  0.42223  1.0000
  Sn  Sn3192    1.0  0.58690  0.55787  0.41110  1.0000
  Sn  Sn3193    1.0  0.58690  0.60880  0.49443  1.0000
  Sn  Sn3194    1.0  0.69881  0.55787  0.33890  1.0000
  Sn  Sn3195    1.0  0.61263  0.61112  0.39263  1.0000
  Sn  Sn3196    1.0  0.67309  0.55555  0.44070  1.0000
  Sn  Sn3197    1.0  0.67309  0.61112  0.35737  1.0000
  Sn  Sn3198    1.0  0.61263  0.55555  0.47597  1.0000
  Sn  Sn3199    1.0  0.68406  0.52778  0.39263  1.0000
  Sn  Sn3200    1.0  0.60166  0.63888  0.44070  1.0000
  Sn  Sn3201    1.0  0.60166  0.52778  0.35737  1.0000
  Sn  Sn3202    1.0  0.68406  0.63888  0.47597  1.0000
  Sn  Sn3203    1.0  0.57143  0.63428  0.37500  1.0000
  Sn  Sn3204    1.0  0.57143  0.53238  0.45833  1.0000
  Sn  Sn3205    1.0  0.64286  0.55095  0.37500  1.0000
  Sn  Sn3206    1.0  0.64286  0.61572  0.45833  1.0000
  Sn  Sn3207    1.0  0.62739  0.52547  0.58890  1.0000
  Sn  Sn3208    1.0  0.65833  0.64120  0.57777  1.0000
  Sn  Sn3209    1.0  0.65833  0.52547  0.66110  1.0000
  Sn  Sn3210    1.0  0.62739  0.64120  0.50557  1.0000
  Sn  Sn3211    1.0  0.69881  0.60880  0.58890  1.0000
  Sn  Sn3212    1.0  0.58690  0.55787  0.57777  1.0000
  Sn  Sn3213    1.0  0.58690  0.60880  0.66110  1.0000
  Sn  Sn3214    1.0  0.69881  0.55787  0.50557  1.0000
  Sn  Sn3215    1.0  0.61263  0.61112  0.55930  1.0000
  Sn  Sn3216    1.0  0.67309  0.55555  0.60737  1.0000
  Sn  Sn3217    1.0  0.67309  0.61112  0.52403  1.0000
  Sn  Sn3218    1.0  0.61263  0.55555  0.64263  1.0000
  Sn  Sn3219    1.0  0.68406  0.52778  0.55930  1.0000
  Sn  Sn3220    1.0  0.60166  0.63888  0.60737  1.0000
  Sn  Sn3221    1.0  0.60166  0.52778  0.52403  1.0000
  Sn  Sn3222    1.0  0.68406  0.63888  0.64263  1.0000
  Sn  Sn3223    1.0  0.57143  0.63428  0.54167  1.0000
  Sn  Sn3224    1.0  0.57143  0.53238  0.62500  1.0000
  Sn  Sn3225    1.0  0.64286  0.55095  0.54167  1.0000
  Sn  Sn3226    1.0  0.64286  0.61572  0.62500  1.0000
  Sn  Sn3227    1.0  0.62739  0.52547  0.75557  1.0000
  Sn  Sn3228    1.0  0.65833  0.64120  0.74443  1.0000
  Sn  Sn3229    1.0  0.65833  0.52547  0.82777  1.0000
  Sn  Sn3230    1.0  0.62739  0.64120  0.67223  1.0000
  Sn  Sn3231    1.0  0.69881  0.60880  0.75557  1.0000
  Sn  Sn3232    1.0  0.58690  0.55787  0.74443  1.0000
  Sn  Sn3233    1.0  0.58690  0.60880  0.82777  1.0000
  Sn  Sn3234    1.0  0.69881  0.55787  0.67223  1.0000
  Sn  Sn3235    1.0  0.61263  0.61112  0.72597  1.0000
  Sn  Sn3236    1.0  0.67309  0.55555  0.77403  1.0000
  Sn  Sn3237    1.0  0.67309  0.61112  0.69070  1.0000
  Sn  Sn3238    1.0  0.61263  0.55555  0.80930  1.0000
  Sn  Sn3239    1.0  0.68406  0.52778  0.72597  1.0000
  Sn  Sn3240    1.0  0.60166  0.63888  0.77403  1.0000
  Sn  Sn3241    1.0  0.60166  0.52778  0.69070  1.0000
  Sn  Sn3242    1.0  0.68406  0.63888  0.80930  1.0000
  Sn  Sn3243    1.0  0.57143  0.63428  0.70833  1.0000
  Sn  Sn3244    1.0  0.57143  0.53238  0.79167  1.0000
  Sn  Sn3245    1.0  0.64286  0.55095  0.70833  1.0000
  Sn  Sn3246    1.0  0.64286  0.61572  0.79167  1.0000
  Sn  Sn3247    1.0  0.62739  0.52547  0.92223  1.0000
  Sn  Sn3248    1.0  0.65833  0.64120  0.91110  1.0000
  Sn  Sn3249    1.0  0.65833  0.52547  0.99443  1.0000
  Sn  Sn3250    1.0  0.62739  0.64120  0.83890  1.0000
  Sn  Sn3251    1.0  0.69881  0.60880  0.92223  1.0000
  Sn  Sn3252    1.0  0.58690  0.55787  0.91110  1.0000
  Sn  Sn3253    1.0  0.58690  0.60880  0.99443  1.0000
  Sn  Sn3254    1.0  0.69881  0.55787  0.83890  1.0000
  Sn  Sn3255    1.0  0.61263  0.61112  0.89263  1.0000
  Sn  Sn3256    1.0  0.67309  0.55555  0.94070  1.0000
  Sn  Sn3257    1.0  0.67309  0.61112  0.85737  1.0000
  Sn  Sn3258    1.0  0.61263  0.55555  0.97597  1.0000
  Sn  Sn3259    1.0  0.68406  0.52778  0.89263  1.0000
  Sn  Sn3260    1.0  0.60166  0.63888  0.94070  1.0000
  Sn  Sn3261    1.0  0.60166  0.52778  0.85737  1.0000
  Sn  Sn3262    1.0  0.68406  0.63888  0.97597  1.0000
  Sn  Sn3263    1.0  0.57143  0.63428  0.87500  1.0000
  Sn  Sn3264    1.0  0.57143  0.53238  0.95833  1.0000
  Sn  Sn3265    1.0  0.64286  0.55095  0.87500  1.0000
  Sn  Sn3266    1.0  0.64286  0.61572  0.95833  1.0000
  Sn  Sn3267    1.0  0.62739  0.69213  0.08890  1.0000
  Sn  Sn3268    1.0  0.65833  0.80787  0.07777  1.0000
  Sn  Sn3269    1.0  0.65833  0.69213  0.16110  1.0000
  Sn  Sn3270    1.0  0.62739  0.80787  0.00557  1.0000
  Sn  Sn3271    1.0  0.69881  0.77547  0.08890  1.0000
  Sn  Sn3272    1.0  0.58690  0.72453  0.07777  1.0000
  Sn  Sn3273    1.0  0.58690  0.77547  0.16110  1.0000
  Sn  Sn3274    1.0  0.69881  0.72453  0.00557  1.0000
  Sn  Sn3275    1.0  0.61263  0.77778  0.05930  1.0000
  Sn  Sn3276    1.0  0.67309  0.72222  0.10737  1.0000
  Sn  Sn3277    1.0  0.67309  0.77778  0.02403  1.0000
  Sn  Sn3278    1.0  0.61263  0.72222  0.14263  1.0000
  Sn  Sn3279    1.0  0.68406  0.69445  0.05930  1.0000
  Sn  Sn3280    1.0  0.60166  0.80555  0.10737  1.0000
  Sn  Sn3281    1.0  0.60166  0.69445  0.02403  1.0000
  Sn  Sn3282    1.0  0.68406  0.80555  0.14263  1.0000
  Sn  Sn3283    1.0  0.57143  0.80095  0.04167  1.0000
  Sn  Sn3284    1.0  0.57143  0.69905  0.12500  1.0000
  Sn  Sn3285    1.0  0.64286  0.71762  0.04167  1.0000
  Sn  Sn3286    1.0  0.64286  0.78238  0.12500  1.0000
  Sn  Sn3287    1.0  0.62739  0.69213  0.25557  1.0000
  Sn  Sn3288    1.0  0.65833  0.80787  0.24443  1.0000
  Sn  Sn3289    1.0  0.65833  0.69213  0.32777  1.0000
  Sn  Sn3290    1.0  0.62739  0.80787  0.17223  1.0000
  Sn  Sn3291    1.0  0.69881  0.77547  0.25557  1.0000
  Sn  Sn3292    1.0  0.58690  0.72453  0.24443  1.0000
  Sn  Sn3293    1.0  0.58690  0.77547  0.32777  1.0000
  Sn  Sn3294    1.0  0.69881  0.72453  0.17223  1.0000
  Sn  Sn3295    1.0  0.61263  0.77778  0.22597  1.0000
  Sn  Sn3296    1.0  0.67309  0.72222  0.27403  1.0000
  Sn  Sn3297    1.0  0.67309  0.77778  0.19070  1.0000
  Sn  Sn3298    1.0  0.61263  0.72222  0.30930  1.0000
  Sn  Sn3299    1.0  0.68406  0.69445  0.22597  1.0000
  Sn  Sn3300    1.0  0.60166  0.80555  0.27403  1.0000
  Sn  Sn3301    1.0  0.60166  0.69445  0.19070  1.0000
  Sn  Sn3302    1.0  0.68406  0.80555  0.30930  1.0000
  Sn  Sn3303    1.0  0.57143  0.80095  0.20833  1.0000
  Sn  Sn3304    1.0  0.57143  0.69905  0.29167  1.0000
  Sn  Sn3305    1.0  0.64286  0.71762  0.20833  1.0000
  Sn  Sn3306    1.0  0.62739  0.69213  0.42223  1.0000
  Sn  Sn3307    1.0  0.65833  0.80787  0.41110  1.0000
  Sn  Sn3308    1.0  0.65833  0.69213  0.49443  1.0000
  Sn  Sn3309    1.0  0.62739  0.80787  0.33890  1.0000
  Sn  Sn3310    1.0  0.69881  0.77547  0.42223  1.0000
  Sn  Sn3311    1.0  0.58690  0.72453  0.41110  1.0000
  Sn  Sn3312    1.0  0.58690  0.77547  0.49443  1.0000
  Sn  Sn3313    1.0  0.69881  0.72453  0.33890  1.0000
  Sn  Sn3314    1.0  0.61263  0.77778  0.39263  1.0000
  Sn  Sn3315    1.0  0.67309  0.72222  0.44070  1.0000
  Sn  Sn3316    1.0  0.67309  0.77778  0.35737  1.0000
  Sn  Sn3317    1.0  0.61263  0.72222  0.47597  1.0000
  Sn  Sn3318    1.0  0.68406  0.69445  0.39263  1.0000
  Sn  Sn3319    1.0  0.60166  0.80555  0.44070  1.0000
  Sn  Sn3320    1.0  0.60166  0.69445  0.35737  1.0000
  Sn  Sn3321    1.0  0.68406  0.80555  0.47597  1.0000
  Sn  Sn3322    1.0  0.57143  0.80095  0.37500  1.0000
  Sn  Sn3323    1.0  0.57143  0.69905  0.45833  1.0000
  Sn  Sn3324    1.0  0.64286  0.71762  0.37500  1.0000
  Sn  Sn3325    1.0  0.64286  0.78238  0.45833  1.0000
  Sn  Sn3326    1.0  0.62739  0.69213  0.58890  1.0000
  Sn  Sn3327    1.0  0.65833  0.80787  0.57777  1.0000
  Sn  Sn3328    1.0  0.65833  0.69213  0.66110  1.0000
  Sn  Sn3329    1.0  0.62739  0.80787  0.50557  1.0000
  Sn  Sn3330    1.0  0.69881  0.77547  0.58890  1.0000
  Sn  Sn3331    1.0  0.58690  0.72453  0.57777  1.0000
  Sn  Sn3332    1.0  0.58690  0.77547  0.66110  1.0000
  Sn  Sn3333    1.0  0.69881  0.72453  0.50557  1.0000
  Sn  Sn3334    1.0  0.61263  0.77778  0.55930  1.0000
  Sn  Sn3335    1.0  0.67309  0.72222  0.60737  1.0000
  Sn  Sn3336    1.0  0.67309  0.77778  0.52403  1.0000
  Sn  Sn3337    1.0  0.61263  0.72222  0.64263  1.0000
  Sn  Sn3338    1.0  0.68406  0.69445  0.55930  1.0000
  Sn  Sn3339    1.0  0.60166  0.80555  0.60737  1.0000
  Sn  Sn3340    1.0  0.60166  0.69445  0.52403  1.0000
  Sn  Sn3341    1.0  0.68406  0.80555  0.64263  1.0000
  Sn  Sn3342    1.0  0.57143  0.80095  0.54167  1.0000
  Sn  Sn3343    1.0  0.57143  0.69905  0.62500  1.0000
  Sn  Sn3344    1.0  0.64286  0.71762  0.54167  1.0000
  Sn  Sn3345    1.0  0.64286  0.78238  0.62500  1.0000
  Sn  Sn3346    1.0  0.62739  0.69213  0.75557  1.0000
  Sn  Sn3347    1.0  0.65833  0.80787  0.74443  1.0000
  Sn  Sn3348    1.0  0.65833  0.69213  0.82777  1.0000
  Sn  Sn3349    1.0  0.62739  0.80787  0.67223  1.0000
  Sn  Sn3350    1.0  0.69881  0.77547  0.75557  1.0000
  Sn  Sn3351    1.0  0.58690  0.72453  0.74443  1.0000
  Sn  Sn3352    1.0  0.58690  0.77547  0.82777  1.0000
  Sn  Sn3353    1.0  0.69881  0.72453  0.67223  1.0000
  Sn  Sn3354    1.0  0.61263  0.77778  0.72597  1.0000
  Sn  Sn3355    1.0  0.67309  0.72222  0.77403  1.0000
  Sn  Sn3356    1.0  0.67309  0.77778  0.69070  1.0000
  Sn  Sn3357    1.0  0.61263  0.72222  0.80930  1.0000
  Sn  Sn3358    1.0  0.68406  0.69445  0.72597  1.0000
  Sn  Sn3359    1.0  0.60166  0.80555  0.77403  1.0000
  Sn  Sn3360    1.0  0.60166  0.69445  0.69070  1.0000
  Sn  Sn3361    1.0  0.68406  0.80555  0.80930  1.0000
  Sn  Sn3362    1.0  0.57143  0.80095  0.70833  1.0000
  Sn  Sn3363    1.0  0.57143  0.69905  0.79167  1.0000
  Sn  Sn3364    1.0  0.64286  0.71762  0.70833  1.0000
  Sn  Sn3365    1.0  0.64286  0.78238  0.79167  1.0000
  Sn  Sn3366    1.0  0.62739  0.69213  0.92223  1.0000
  Sn  Sn3367    1.0  0.65833  0.80787  0.91110  1.0000
  Sn  Sn3368    1.0  0.65833  0.69213  0.99443  1.0000
  Sn  Sn3369    1.0  0.62739  0.80787  0.83890  1.0000
  Sn  Sn3370    1.0  0.69881  0.77547  0.92223  1.0000
  Sn  Sn3371    1.0  0.58690  0.72453  0.91110  1.0000
  Sn  Sn3372    1.0  0.58690  0.77547  0.99443  1.0000
  Sn  Sn3373    1.0  0.69881  0.72453  0.83890  1.0000
  Sn  Sn3374    1.0  0.61263  0.77778  0.89263  1.0000
  Sn  Sn3375    1.0  0.67309  0.72222  0.94070  1.0000
  Sn  Sn3376    1.0  0.67309  0.77778  0.85737  1.0000
  Sn  Sn3377    1.0  0.61263  0.72222  0.97597  1.0000
  Sn  Sn3378    1.0  0.68406  0.69445  0.89263  1.0000
  Sn  Sn3379    1.0  0.60166  0.80555  0.94070  1.0000
  Sn  Sn3380    1.0  0.60166  0.69445  0.85737  1.0000
  Sn  Sn3381    1.0  0.68406  0.80555  0.97597  1.0000
  Sn  Sn3382    1.0  0.57143  0.80095  0.87500  1.0000
  Sn  Sn3383    1.0  0.57143  0.69905  0.95833  1.0000
  Sn  Sn3384    1.0  0.64286  0.71762  0.87500  1.0000
  Sn  Sn3385    1.0  0.64286  0.78238  0.95833  1.0000
  Sn  Sn3386    1.0  0.62739  0.85880  0.08890  1.0000
  Sn  Sn3387    1.0  0.65833  0.97453  0.07777  1.0000
  Sn  Sn3388    1.0  0.65833  0.85880  0.16110  1.0000
  Sn  Sn3389    1.0  0.62739  0.97453  0.00557  1.0000
  Sn  Sn3390    1.0  0.69881  0.94213  0.08890  1.0000
  Sn  Sn3391    1.0  0.58690  0.89120  0.07777  1.0000
  Sn  Sn3392    1.0  0.58690  0.94213  0.16110  1.0000
  Sn  Sn3393    1.0  0.69881  0.89120  0.00557  1.0000
  Sn  Sn3394    1.0  0.61263  0.94445  0.05930  1.0000
  Sn  Sn3395    1.0  0.67309  0.88888  0.10737  1.0000
  Sn  Sn3396    1.0  0.67309  0.94445  0.02403  1.0000
  Sn  Sn3397    1.0  0.61263  0.88888  0.14263  1.0000
  Sn  Sn3398    1.0  0.68406  0.86112  0.05930  1.0000
  Sn  Sn3399    1.0  0.60166  0.97222  0.10737  1.0000
  Sn  Sn3400    1.0  0.60166  0.86112  0.02403  1.0000
  Sn  Sn3401    1.0  0.68406  0.97222  0.14263  1.0000
  Sn  Sn3402    1.0  0.57143  0.96762  0.04167  1.0000
  Sn  Sn3403    1.0  0.57143  0.86572  0.12500  1.0000
  Sn  Sn3404    1.0  0.64286  0.88428  0.04167  1.0000
  Sn  Sn3405    1.0  0.64286  0.94905  0.12500  1.0000
  Sn  Sn3406    1.0  0.62739  0.85880  0.25557  1.0000
  Sn  Sn3407    1.0  0.65833  0.97453  0.24443  1.0000
  Sn  Sn3408    1.0  0.65833  0.85880  0.32777  1.0000
  Sn  Sn3409    1.0  0.58690  0.89120  0.24443  1.0000
  Sn  Sn3410    1.0  0.58690  0.94213  0.32777  1.0000
  Sn  Sn3411    1.0  0.69881  0.89120  0.17223  1.0000
  Sn  Sn3412    1.0  0.61263  0.94445  0.22597  1.0000
  Sn  Sn3413    1.0  0.67309  0.88888  0.27403  1.0000
  Sn  Sn3414    1.0  0.67309  0.94445  0.19070  1.0000
  Sn  Sn3415    1.0  0.61263  0.88888  0.30930  1.0000
  Sn  Sn3416    1.0  0.68406  0.86112  0.22597  1.0000
  Sn  Sn3417    1.0  0.60166  0.97222  0.27403  1.0000
  Sn  Sn3418    1.0  0.60166  0.86112  0.19070  1.0000
  Sn  Sn3419    1.0  0.68406  0.97222  0.30930  1.0000
  Sn  Sn3420    1.0  0.57143  0.96762  0.20833  1.0000
  Sn  Sn3421    1.0  0.57143  0.86572  0.29167  1.0000
  Sn  Sn3422    1.0  0.64286  0.88428  0.20833  1.0000
  Sn  Sn3423    1.0  0.64286  0.94905  0.29167  1.0000
  Sn  Sn3424    1.0  0.62739  0.85880  0.42223  1.0000
  Sn  Sn3425    1.0  0.65833  0.97453  0.41110  1.0000
  Sn  Sn3426    1.0  0.65833  0.85880  0.49443  1.0000
  Sn  Sn3427    1.0  0.62739  0.97453  0.33890  1.0000
  Sn  Sn3428    1.0  0.69881  0.94213  0.42223  1.0000
  Sn  Sn3429    1.0  0.58690  0.94213  0.49443  1.0000
  Sn  Sn3430    1.0  0.69881  0.89120  0.33890  1.0000
  Sn  Sn3431    1.0  0.61263  0.94445  0.39263  1.0000
  Sn  Sn3432    1.0  0.67309  0.88888  0.44070  1.0000
  Sn  Sn3433    1.0  0.67309  0.94445  0.35737  1.0000
  Sn  Sn3434    1.0  0.61263  0.88888  0.47597  1.0000
  Sn  Sn3435    1.0  0.68406  0.86112  0.39263  1.0000
  Sn  Sn3436    1.0  0.60166  0.97222  0.44070  1.0000
  Sn  Sn3437    1.0  0.60166  0.86112  0.35737  1.0000
  Sn  Sn3438    1.0  0.68406  0.97222  0.47597  1.0000
  Sn  Sn3439    1.0  0.57143  0.96762  0.37500  1.0000
  Sn  Sn3440    1.0  0.57143  0.86572  0.45833  1.0000
  Sn  Sn3441    1.0  0.64286  0.88428  0.37500  1.0000
  Sn  Sn3442    1.0  0.64286  0.94905  0.45833  1.0000
  Sn  Sn3443    1.0  0.62739  0.85880  0.58890  1.0000
  Sn  Sn3444    1.0  0.65833  0.97453  0.57777  1.0000
  Sn  Sn3445    1.0  0.65833  0.85880  0.66110  1.0000
  Sn  Sn3446    1.0  0.62739  0.97453  0.50557  1.0000
  Sn  Sn3447    1.0  0.69881  0.94213  0.58890  1.0000
  Sn  Sn3448    1.0  0.58690  0.89120  0.57777  1.0000
  Sn  Sn3449    1.0  0.58690  0.94213  0.66110  1.0000
  Sn  Sn3450    1.0  0.69881  0.89120  0.50557  1.0000
  Sn  Sn3451    1.0  0.61263  0.94445  0.55930  1.0000
  Sn  Sn3452    1.0  0.67309  0.88888  0.60737  1.0000
  Sn  Sn3453    1.0  0.67309  0.94445  0.52403  1.0000
  Sn  Sn3454    1.0  0.61263  0.88888  0.64263  1.0000
  Sn  Sn3455    1.0  0.68406  0.86112  0.55930  1.0000
  Sn  Sn3456    1.0  0.60166  0.97222  0.60737  1.0000
  Sn  Sn3457    1.0  0.60166  0.86112  0.52403  1.0000
  Sn  Sn3458    1.0  0.68406  0.97222  0.64263  1.0000
  Sn  Sn3459    1.0  0.57143  0.96762  0.54167  1.0000
  Sn  Sn3460    1.0  0.57143  0.86572  0.62500  1.0000
  Sn  Sn3461    1.0  0.64286  0.88428  0.54167  1.0000
  Sn  Sn3462    1.0  0.64286  0.94905  0.62500  1.0000
  Sn  Sn3463    1.0  0.62739  0.85880  0.75557  1.0000
  Sn  Sn3464    1.0  0.65833  0.97453  0.74443  1.0000
  Sn  Sn3465    1.0  0.65833  0.85880  0.82777  1.0000
  Sn  Sn3466    1.0  0.62739  0.97453  0.67223  1.0000
  Sn  Sn3467    1.0  0.69881  0.94213  0.75557  1.0000
  Sn  Sn3468    1.0  0.58690  0.89120  0.74443  1.0000
  Sn  Sn3469    1.0  0.58690  0.94213  0.82777  1.0000
  Sn  Sn3470    1.0  0.69881  0.89120  0.67223  1.0000
  Sn  Sn3471    1.0  0.61263  0.94445  0.72597  1.0000
  Sn  Sn3472    1.0  0.67309  0.88888  0.77403  1.0000
  Sn  Sn3473    1.0  0.67309  0.94445  0.69070  1.0000
  Sn  Sn3474    1.0  0.61263  0.88888  0.80930  1.0000
  Sn  Sn3475    1.0  0.68406  0.86112  0.72597  1.0000
  Sn  Sn3476    1.0  0.60166  0.97222  0.77403  1.0000
  Sn  Sn3477    1.0  0.60166  0.86112  0.69070  1.0000
  Sn  Sn3478    1.0  0.68406  0.97222  0.80930  1.0000
  Sn  Sn3479    1.0  0.57143  0.96762  0.70833  1.0000
  Sn  Sn3480    1.0  0.57143  0.86572  0.79167  1.0000
  Sn  Sn3481    1.0  0.64286  0.88428  0.70833  1.0000
  Sn  Sn3482    1.0  0.64286  0.94905  0.79167  1.0000
  Sn  Sn3483    1.0  0.62739  0.85880  0.92223  1.0000
  Sn  Sn3484    1.0  0.65833  0.97453  0.91110  1.0000
  Sn  Sn3485    1.0  0.65833  0.85880  0.99443  1.0000
  Sn  Sn3486    1.0  0.69881  0.94213  0.92223  1.0000
  Sn  Sn3487    1.0  0.58690  0.89120  0.91110  1.0000
  Sn  Sn3488    1.0  0.58690  0.94213  0.99443  1.0000
  Sn  Sn3489    1.0  0.69881  0.89120  0.83890  1.0000
  Sn  Sn3490    1.0  0.61263  0.94445  0.89263  1.0000
  Sn  Sn3491    1.0  0.67309  0.88888  0.94070  1.0000
  Sn  Sn3492    1.0  0.67309  0.94445  0.85737  1.0000
  Sn  Sn3493    1.0  0.61263  0.88888  0.97597  1.0000
  Sn  Sn3494    1.0  0.68406  0.86112  0.89263  1.0000
  Sn  Sn3495    1.0  0.60166  0.97222  0.94070  1.0000
  Sn  Sn3496    1.0  0.60166  0.86112  0.85737  1.0000
  Sn  Sn3497    1.0  0.68406  0.97222  0.97597  1.0000
  Sn  Sn3498    1.0  0.57143  0.96762  0.87500  1.0000
  Sn  Sn3499    1.0  0.57143  0.86572  0.95833  1.0000
  Sn  Sn3500    1.0  0.64286  0.88428  0.87500  1.0000
  Sn  Sn3501    1.0  0.64286  0.94905  0.95833  1.0000
  Sn  Sn3502    1.0  0.77024  0.02547  0.08890  1.0000
  Sn  Sn3503    1.0  0.80119  0.14120  0.07777  1.0000
  Sn  Sn3504    1.0  0.80119  0.02547  0.16110  1.0000
  Sn  Sn3505    1.0  0.77024  0.14120  0.00557  1.0000
  Sn  Sn3506    1.0  0.84167  0.10880  0.08890  1.0000
  Sn  Sn3507    1.0  0.72976  0.05787  0.07777  1.0000
  Sn  Sn3508    1.0  0.72976  0.10880  0.16110  1.0000
  Sn  Sn3509    1.0  0.84167  0.05787  0.00557  1.0000
  Sn  Sn3510    1.0  0.75549  0.11112  0.05930  1.0000
  Sn  Sn3511    1.0  0.81594  0.05555  0.10737  1.0000
  Sn  Sn3512    1.0  0.81594  0.11112  0.02403  1.0000
  Sn  Sn3513    1.0  0.75549  0.05555  0.14263  1.0000
  Sn  Sn3514    1.0  0.82691  0.02778  0.05930  1.0000
  Sn  Sn3515    1.0  0.74451  0.13888  0.10737  1.0000
  Sn  Sn3516    1.0  0.74451  0.02778  0.02403  1.0000
  Sn  Sn3517    1.0  0.82691  0.13888  0.14263  1.0000
  Sn  Sn3518    1.0  0.71429  0.13428  0.04167  1.0000
  Sn  Sn3519    1.0  0.71429  0.03238  0.12500  1.0000
  Sn  Sn3520    1.0  0.78571  0.05095  0.04167  1.0000
  Sn  Sn3521    1.0  0.78571  0.11572  0.12500  1.0000
  Sn  Sn3522    1.0  0.77024  0.02547  0.25557  1.0000
  Sn  Sn3523    1.0  0.80119  0.14120  0.24443  1.0000
  Sn  Sn3524    1.0  0.80119  0.02547  0.32777  1.0000
  Sn  Sn3525    1.0  0.77024  0.14120  0.17223  1.0000
  Sn  Sn3526    1.0  0.84167  0.10880  0.25557  1.0000
  Sn  Sn3527    1.0  0.72976  0.05787  0.24443  1.0000
  Sn  Sn3528    1.0  0.72976  0.10880  0.32777  1.0000
  Sn  Sn3529    1.0  0.84167  0.05787  0.17223  1.0000
  Sn  Sn3530    1.0  0.75549  0.11112  0.22597  1.0000
  Sn  Sn3531    1.0  0.81594  0.05555  0.27403  1.0000
  Sn  Sn3532    1.0  0.81594  0.11112  0.19070  1.0000
  Sn  Sn3533    1.0  0.75549  0.05555  0.30930  1.0000
  Sn  Sn3534    1.0  0.82691  0.02778  0.22597  1.0000
  Sn  Sn3535    1.0  0.74451  0.13888  0.27403  1.0000
  Sn  Sn3536    1.0  0.74451  0.02778  0.19070  1.0000
  Sn  Sn3537    1.0  0.82691  0.13888  0.30930  1.0000
  Sn  Sn3538    1.0  0.71429  0.13428  0.20833  1.0000
  Sn  Sn3539    1.0  0.71429  0.03238  0.29167  1.0000
  Sn  Sn3540    1.0  0.78571  0.05095  0.20833  1.0000
  Sn  Sn3541    1.0  0.78571  0.11572  0.29167  1.0000
  Sn  Sn3542    1.0  0.77024  0.02547  0.42223  1.0000
  Sn  Sn3543    1.0  0.80119  0.14120  0.41110  1.0000
  Sn  Sn3544    1.0  0.80119  0.02547  0.49443  1.0000
  Sn  Sn3545    1.0  0.77024  0.14120  0.33890  1.0000
  Sn  Sn3546    1.0  0.84167  0.10880  0.42223  1.0000
  Sn  Sn3547    1.0  0.72976  0.05787  0.41110  1.0000
  Sn  Sn3548    1.0  0.72976  0.10880  0.49443  1.0000
  Sn  Sn3549    1.0  0.75549  0.11112  0.39263  1.0000
  Sn  Sn3550    1.0  0.81594  0.05555  0.44070  1.0000
  Sn  Sn3551    1.0  0.81594  0.11112  0.35737  1.0000
  Sn  Sn3552    1.0  0.75549  0.05555  0.47597  1.0000
  Sn  Sn3553    1.0  0.82691  0.02778  0.39263  1.0000
  Sn  Sn3554    1.0  0.74451  0.13888  0.44070  1.0000
  Sn  Sn3555    1.0  0.74451  0.02778  0.35737  1.0000
  Sn  Sn3556    1.0  0.82691  0.13888  0.47597  1.0000
  Sn  Sn3557    1.0  0.71429  0.13428  0.37500  1.0000
  Sn  Sn3558    1.0  0.71429  0.03238  0.45833  1.0000
  Sn  Sn3559    1.0  0.78571  0.05095  0.37500  1.0000
  Sn  Sn3560    1.0  0.78571  0.11572  0.45833  1.0000
  Sn  Sn3561    1.0  0.77024  0.02547  0.58890  1.0000
  Sn  Sn3562    1.0  0.80119  0.14120  0.57777  1.0000
  Sn  Sn3563    1.0  0.80119  0.02547  0.66110  1.0000
  Sn  Sn3564    1.0  0.77024  0.14120  0.50557  1.0000
  Sn  Sn3565    1.0  0.84167  0.10880  0.58890  1.0000
  Sn  Sn3566    1.0  0.72976  0.05787  0.57777  1.0000
  Sn  Sn3567    1.0  0.72976  0.10880  0.66110  1.0000
  Sn  Sn3568    1.0  0.84167  0.05787  0.50557  1.0000
  Sn  Sn3569    1.0  0.75549  0.11112  0.55930  1.0000
  Sn  Sn3570    1.0  0.81594  0.05555  0.60737  1.0000
  Sn  Sn3571    1.0  0.81594  0.11112  0.52403  1.0000
  Sn  Sn3572    1.0  0.75549  0.05555  0.64263  1.0000
  Sn  Sn3573    1.0  0.82691  0.02778  0.55930  1.0000
  Sn  Sn3574    1.0  0.74451  0.13888  0.60737  1.0000
  Sn  Sn3575    1.0  0.74451  0.02778  0.52403  1.0000
  Sn  Sn3576    1.0  0.82691  0.13888  0.64263  1.0000
  Sn  Sn3577    1.0  0.71429  0.13428  0.54167  1.0000
  Sn  Sn3578    1.0  0.71429  0.03238  0.62500  1.0000
  Sn  Sn3579    1.0  0.78571  0.05095  0.54167  1.0000
  Sn  Sn3580    1.0  0.77024  0.02547  0.75557  1.0000
  Sn  Sn3581    1.0  0.80119  0.14120  0.74443  1.0000
  Sn  Sn3582    1.0  0.80119  0.02547  0.82777  1.0000
  Sn  Sn3583    1.0  0.77024  0.14120  0.67223  1.0000
  Sn  Sn3584    1.0  0.84167  0.10880  0.75557  1.0000
  Sn  Sn3585    1.0  0.72976  0.05787  0.74443  1.0000
  Sn  Sn3586    1.0  0.72976  0.10880  0.82777  1.0000
  Sn  Sn3587    1.0  0.84167  0.05787  0.67223  1.0000
  Sn  Sn3588    1.0  0.75549  0.11112  0.72597  1.0000
  Sn  Sn3589    1.0  0.81594  0.05555  0.77403  1.0000
  Sn  Sn3590    1.0  0.81594  0.11112  0.69070  1.0000
  Sn  Sn3591    1.0  0.75549  0.05555  0.80930  1.0000
  Sn  Sn3592    1.0  0.82691  0.02778  0.72597  1.0000
  Sn  Sn3593    1.0  0.74451  0.13888  0.77403  1.0000
  Sn  Sn3594    1.0  0.74451  0.02778  0.69070  1.0000
  Sn  Sn3595    1.0  0.82691  0.13888  0.80930  1.0000
  Sn  Sn3596    1.0  0.71429  0.13428  0.70833  1.0000
  Sn  Sn3597    1.0  0.71429  0.03238  0.79167  1.0000
  Sn  Sn3598    1.0  0.78571  0.05095  0.70833  1.0000
  Sn  Sn3599    1.0  0.78571  0.11572  0.79167  1.0000
  Sn  Sn3600    1.0  0.77024  0.02547  0.92223  1.0000
  Sn  Sn3601    1.0  0.80119  0.14120  0.91110  1.0000
  Sn  Sn3602    1.0  0.80119  0.02547  0.99443  1.0000
  Sn  Sn3603    1.0  0.77024  0.14120  0.83890  1.0000
  Sn  Sn3604    1.0  0.84167  0.10880  0.92223  1.0000
  Sn  Sn3605    1.0  0.72976  0.05787  0.91110  1.0000
  Sn  Sn3606    1.0  0.72976  0.10880  0.99443  1.0000
  Sn  Sn3607    1.0  0.84167  0.05787  0.83890  1.0000
  Sn  Sn3608    1.0  0.75549  0.11112  0.89263  1.0000
  Sn  Sn3609    1.0  0.81594  0.05555  0.94070  1.0000
  Sn  Sn3610    1.0  0.81594  0.11112  0.85737  1.0000
  Sn  Sn3611    1.0  0.75549  0.05555  0.97597  1.0000
  Sn  Sn3612    1.0  0.82691  0.02778  0.89263  1.0000
  Sn  Sn3613    1.0  0.74451  0.13888  0.94070  1.0000
  Sn  Sn3614    1.0  0.74451  0.02778  0.85737  1.0000
  Sn  Sn3615    1.0  0.82691  0.13888  0.97597  1.0000
  Sn  Sn3616    1.0  0.71429  0.13428  0.87500  1.0000
  Sn  Sn3617    1.0  0.71429  0.03238  0.95833  1.0000
  Sn  Sn3618    1.0  0.78571  0.05095  0.87500  1.0000
  Sn  Sn3619    1.0  0.78571  0.11572  0.95833  1.0000
  Sn  Sn3620    1.0  0.77024  0.19213  0.08890  1.0000
  Sn  Sn3621    1.0  0.80119  0.30787  0.07777  1.0000
  Sn  Sn3622    1.0  0.80119  0.19213  0.16110  1.0000
  Sn  Sn3623    1.0  0.77024  0.30787  0.00557  1.0000
  Sn  Sn3624    1.0  0.84167  0.27547  0.08890  1.0000
  Sn  Sn3625    1.0  0.72976  0.22453  0.07777  1.0000
  Sn  Sn3626    1.0  0.72976  0.27547  0.16110  1.0000
  Sn  Sn3627    1.0  0.84167  0.22453  0.00557  1.0000
  Sn  Sn3628    1.0  0.75549  0.27778  0.05930  1.0000
  Sn  Sn3629    1.0  0.81594  0.22222  0.10737  1.0000
  Sn  Sn3630    1.0  0.81594  0.27778  0.02403  1.0000
  Sn  Sn3631    1.0  0.75549  0.22222  0.14263  1.0000
  Sn  Sn3632    1.0  0.82691  0.19445  0.05930  1.0000
  Sn  Sn3633    1.0  0.74451  0.30555  0.10737  1.0000
  Sn  Sn3634    1.0  0.74451  0.19445  0.02403  1.0000
  Sn  Sn3635    1.0  0.82691  0.30555  0.14263  1.0000
  Sn  Sn3636    1.0  0.71429  0.30095  0.04167  1.0000
  Sn  Sn3637    1.0  0.71429  0.19905  0.12500  1.0000
  Sn  Sn3638    1.0  0.78571  0.21762  0.04167  1.0000
  Sn  Sn3639    1.0  0.78571  0.28238  0.12500  1.0000
  Sn  Sn3640    1.0  0.77024  0.19213  0.25557  1.0000
  Sn  Sn3641    1.0  0.80119  0.30787  0.24443  1.0000
  Sn  Sn3642    1.0  0.80119  0.19213  0.32777  1.0000
  Sn  Sn3643    1.0  0.77024  0.30787  0.17223  1.0000
  Sn  Sn3644    1.0  0.84167  0.27547  0.25557  1.0000
  Sn  Sn3645    1.0  0.72976  0.22453  0.24443  1.0000
  Sn  Sn3646    1.0  0.72976  0.27547  0.32777  1.0000
  Sn  Sn3647    1.0  0.84167  0.22453  0.17223  1.0000
  Sn  Sn3648    1.0  0.75549  0.27778  0.22597  1.0000
  Sn  Sn3649    1.0  0.81594  0.22222  0.27403  1.0000
  Sn  Sn3650    1.0  0.81594  0.27778  0.19070  1.0000
  Sn  Sn3651    1.0  0.75549  0.22222  0.30930  1.0000
  Sn  Sn3652    1.0  0.82691  0.19445  0.22597  1.0000
  Sn  Sn3653    1.0  0.74451  0.30555  0.27403  1.0000
  Sn  Sn3654    1.0  0.74451  0.19445  0.19070  1.0000
  Sn  Sn3655    1.0  0.82691  0.30555  0.30930  1.0000
  Sn  Sn3656    1.0  0.71429  0.30095  0.20833  1.0000
  Sn  Sn3657    1.0  0.71429  0.19905  0.29167  1.0000
  Sn  Sn3658    1.0  0.78571  0.21762  0.20833  1.0000
  Sn  Sn3659    1.0  0.78571  0.28238  0.29167  1.0000
  Sn  Sn3660    1.0  0.77024  0.19213  0.42223  1.0000
  Sn  Sn3661    1.0  0.80119  0.30787  0.41110  1.0000
  Sn  Sn3662    1.0  0.80119  0.19213  0.49443  1.0000
  Sn  Sn3663    1.0  0.77024  0.30787  0.33890  1.0000
  Sn  Sn3664    1.0  0.84167  0.27547  0.42223  1.0000
  Sn  Sn3665    1.0  0.72976  0.22453  0.41110  1.0000
  Sn  Sn3666    1.0  0.72976  0.27547  0.49443  1.0000
  Sn  Sn3667    1.0  0.84167  0.22453  0.33890  1.0000
  Sn  Sn3668    1.0  0.75549  0.27778  0.39263  1.0000
  Sn  Sn3669    1.0  0.81594  0.22222  0.44070  1.0000
  Sn  Sn3670    1.0  0.81594  0.27778  0.35737  1.0000
  Sn  Sn3671    1.0  0.75549  0.22222  0.47597  1.0000
  Sn  Sn3672    1.0  0.82691  0.19445  0.39263  1.0000
  Sn  Sn3673    1.0  0.74451  0.30555  0.44070  1.0000
  Sn  Sn3674    1.0  0.74451  0.19445  0.35737  1.0000
  Sn  Sn3675    1.0  0.82691  0.30555  0.47597  1.0000
  Sn  Sn3676    1.0  0.71429  0.30095  0.37500  1.0000
  Sn  Sn3677    1.0  0.71429  0.19905  0.45833  1.0000
  Sn  Sn3678    1.0  0.78571  0.21762  0.37500  1.0000
  Sn  Sn3679    1.0  0.78571  0.28238  0.45833  1.0000
  Sn  Sn3680    1.0  0.77024  0.19213  0.58890  1.0000
  Sn  Sn3681    1.0  0.80119  0.30787  0.57777  1.0000
  Sn  Sn3682    1.0  0.80119  0.19213  0.66110  1.0000
  Sn  Sn3683    1.0  0.77024  0.30787  0.50557  1.0000
  Sn  Sn3684    1.0  0.84167  0.27547  0.58890  1.0000
  Sn  Sn3685    1.0  0.72976  0.22453  0.57777  1.0000
  Sn  Sn3686    1.0  0.72976  0.27547  0.66110  1.0000
  Sn  Sn3687    1.0  0.84167  0.22453  0.50557  1.0000
  Sn  Sn3688    1.0  0.75549  0.27778  0.55930  1.0000
  Sn  Sn3689    1.0  0.81594  0.22222  0.60737  1.0000
  Sn  Sn3690    1.0  0.81594  0.27778  0.52403  1.0000
  Sn  Sn3691    1.0  0.75549  0.22222  0.64263  1.0000
  Sn  Sn3692    1.0  0.82691  0.19445  0.55930  1.0000
  Sn  Sn3693    1.0  0.74451  0.30555  0.60737  1.0000
  Sn  Sn3694    1.0  0.74451  0.19445  0.52403  1.0000
  Sn  Sn3695    1.0  0.82691  0.30555  0.64263  1.0000
  Sn  Sn3696    1.0  0.71429  0.30095  0.54167  1.0000
  Sn  Sn3697    1.0  0.71429  0.19905  0.62500  1.0000
  Sn  Sn3698    1.0  0.78571  0.21762  0.54167  1.0000
  Sn  Sn3699    1.0  0.78571  0.28238  0.62500  1.0000
  Sn  Sn3700    1.0  0.77024  0.19213  0.75557  1.0000
  Sn  Sn3701    1.0  0.80119  0.30787  0.74443  1.0000
  Sn  Sn3702    1.0  0.77024  0.30787  0.67223  1.0000
  Sn  Sn3703    1.0  0.84167  0.27547  0.75557  1.0000
  Sn  Sn3704    1.0  0.72976  0.22453  0.74443  1.0000
  Sn  Sn3705    1.0  0.72976  0.27547  0.82777  1.0000
  Sn  Sn3706    1.0  0.84167  0.22453  0.67223  1.0000
  Sn  Sn3707    1.0  0.75549  0.27778  0.72597  1.0000
  Sn  Sn3708    1.0  0.81594  0.22222  0.77403  1.0000
  Sn  Sn3709    1.0  0.81594  0.27778  0.69070  1.0000
  Sn  Sn3710    1.0  0.75549  0.22222  0.80930  1.0000
  Sn  Sn3711    1.0  0.82691  0.19445  0.72597  1.0000
  Sn  Sn3712    1.0  0.74451  0.30555  0.77403  1.0000
  Sn  Sn3713    1.0  0.74451  0.19445  0.69070  1.0000
  Sn  Sn3714    1.0  0.82691  0.30555  0.80930  1.0000
  Sn  Sn3715    1.0  0.71429  0.30095  0.70833  1.0000
  Sn  Sn3716    1.0  0.71429  0.19905  0.79167  1.0000
  Sn  Sn3717    1.0  0.78571  0.21762  0.70833  1.0000
  Sn  Sn3718    1.0  0.78571  0.28238  0.79167  1.0000
  Sn  Sn3719    1.0  0.77024  0.19213  0.92223  1.0000
  Sn  Sn3720    1.0  0.80119  0.30787  0.91110  1.0000
  Sn  Sn3721    1.0  0.80119  0.19213  0.99443  1.0000
  Sn  Sn3722    1.0  0.77024  0.30787  0.83890  1.0000
  Sn  Sn3723    1.0  0.84167  0.27547  0.92223  1.0000
  Sn  Sn3724    1.0  0.72976  0.22453  0.91110  1.0000
  Sn  Sn3725    1.0  0.72976  0.27547  0.99443  1.0000
  Sn  Sn3726    1.0  0.84167  0.22453  0.83890  1.0000
  Sn  Sn3727    1.0  0.75549  0.27778  0.89263  1.0000
  Sn  Sn3728    1.0  0.81594  0.22222  0.94070  1.0000
  Sn  Sn3729    1.0  0.81594  0.27778  0.85737  1.0000
  Sn  Sn3730    1.0  0.75549  0.22222  0.97597  1.0000
  Sn  Sn3731    1.0  0.82691  0.19445  0.89263  1.0000
  Sn  Sn3732    1.0  0.74451  0.30555  0.94070  1.0000
  Sn  Sn3733    1.0  0.74451  0.19445  0.85737  1.0000
  Sn  Sn3734    1.0  0.71429  0.30095  0.87500  1.0000
  Sn  Sn3735    1.0  0.71429  0.19905  0.95833  1.0000
  Sn  Sn3736    1.0  0.78571  0.21762  0.87500  1.0000
  Sn  Sn3737    1.0  0.78571  0.28238  0.95833  1.0000
  Sn  Sn3738    1.0  0.80119  0.47453  0.07777  1.0000
  Sn  Sn3739    1.0  0.80119  0.35880  0.16110  1.0000
  Sn  Sn3740    1.0  0.77024  0.47453  0.00557  1.0000
  Sn  Sn3741    1.0  0.84167  0.44213  0.08890  1.0000
  Sn  Sn3742    1.0  0.72976  0.39120  0.07777  1.0000
  Sn  Sn3743    1.0  0.72976  0.44213  0.16110  1.0000
  Sn  Sn3744    1.0  0.84167  0.39120  0.00557  1.0000
  Sn  Sn3745    1.0  0.81594  0.38888  0.10737  1.0000
  Sn  Sn3746    1.0  0.81594  0.44445  0.02403  1.0000
  Sn  Sn3747    1.0  0.75549  0.38888  0.14263  1.0000
  Sn  Sn3748    1.0  0.82691  0.36112  0.05930  1.0000
  Sn  Sn3749    1.0  0.74451  0.47222  0.10737  1.0000
  Sn  Sn3750    1.0  0.74451  0.36112  0.02403  1.0000
  Sn  Sn3751    1.0  0.82691  0.47222  0.14263  1.0000
  Sn  Sn3752    1.0  0.71429  0.46762  0.04167  1.0000
  Sn  Sn3753    1.0  0.71429  0.36572  0.12500  1.0000
  Sn  Sn3754    1.0  0.78571  0.38428  0.04167  1.0000
  Sn  Sn3755    1.0  0.78571  0.44905  0.12500  1.0000
  Sn  Sn3756    1.0  0.77024  0.35880  0.25557  1.0000
  Sn  Sn3757    1.0  0.80119  0.35880  0.32777  1.0000
  Sn  Sn3758    1.0  0.77024  0.47453  0.17223  1.0000
  Sn  Sn3759    1.0  0.84167  0.44213  0.25557  1.0000
  Sn  Sn3760    1.0  0.72976  0.39120  0.24443  1.0000
  Sn  Sn3761    1.0  0.72976  0.44213  0.32777  1.0000
  Sn  Sn3762    1.0  0.84167  0.39120  0.17223  1.0000
  Sn  Sn3763    1.0  0.75549  0.44445  0.22597  1.0000
  Sn  Sn3764    1.0  0.81594  0.38888  0.27403  1.0000
  Sn  Sn3765    1.0  0.81594  0.44445  0.19070  1.0000
  Sn  Sn3766    1.0  0.75549  0.38888  0.30930  1.0000
  Sn  Sn3767    1.0  0.82691  0.36112  0.22597  1.0000
  Sn  Sn3768    1.0  0.74451  0.47222  0.27403  1.0000
  Sn  Sn3769    1.0  0.74451  0.36112  0.19070  1.0000
  Sn  Sn3770    1.0  0.82691  0.47222  0.30930  1.0000
  Sn  Sn3771    1.0  0.71429  0.46762  0.20833  1.0000
  Sn  Sn3772    1.0  0.71429  0.36572  0.29167  1.0000
  Sn  Sn3773    1.0  0.78571  0.38428  0.20833  1.0000
  Sn  Sn3774    1.0  0.78571  0.44905  0.29167  1.0000
  Sn  Sn3775    1.0  0.77024  0.35880  0.42223  1.0000
  Sn  Sn3776    1.0  0.80119  0.47453  0.41110  1.0000
  Sn  Sn3777    1.0  0.80119  0.35880  0.49443  1.0000
  Sn  Sn3778    1.0  0.77024  0.47453  0.33890  1.0000
  Sn  Sn3779    1.0  0.84167  0.44213  0.42223  1.0000
  Sn  Sn3780    1.0  0.72976  0.39120  0.41110  1.0000
  Sn  Sn3781    1.0  0.72976  0.44213  0.49443  1.0000
  Sn  Sn3782    1.0  0.84167  0.39120  0.33890  1.0000
  Sn  Sn3783    1.0  0.75549  0.44445  0.39263  1.0000
  Sn  Sn3784    1.0  0.81594  0.38888  0.44070  1.0000
  Sn  Sn3785    1.0  0.81594  0.44445  0.35737  1.0000
  Sn  Sn3786    1.0  0.75549  0.38888  0.47597  1.0000
  Sn  Sn3787    1.0  0.82691  0.36112  0.39263  1.0000
  Sn  Sn3788    1.0  0.74451  0.47222  0.44070  1.0000
  Sn  Sn3789    1.0  0.74451  0.36112  0.35737  1.0000
  Sn  Sn3790    1.0  0.82691  0.47222  0.47597  1.0000
  Sn  Sn3791    1.0  0.71429  0.46762  0.37500  1.0000
  Sn  Sn3792    1.0  0.71429  0.36572  0.45833  1.0000
  Sn  Sn3793    1.0  0.78571  0.38428  0.37500  1.0000
  Sn  Sn3794    1.0  0.78571  0.44905  0.45833  1.0000
  Sn  Sn3795    1.0  0.77024  0.35880  0.58890  1.0000
  Sn  Sn3796    1.0  0.80119  0.47453  0.57777  1.0000
  Sn  Sn3797    1.0  0.80119  0.35880  0.66110  1.0000
  Sn  Sn3798    1.0  0.77024  0.47453  0.50557  1.0000
  Sn  Sn3799    1.0  0.84167  0.44213  0.58890  1.0000
  Sn  Sn3800    1.0  0.72976  0.39120  0.57777  1.0000
  Sn  Sn3801    1.0  0.72976  0.44213  0.66110  1.0000
  Sn  Sn3802    1.0  0.84167  0.39120  0.50557  1.0000
  Sn  Sn3803    1.0  0.75549  0.44445  0.55930  1.0000
  Sn  Sn3804    1.0  0.81594  0.38888  0.60737  1.0000
  Sn  Sn3805    1.0  0.81594  0.44445  0.52403  1.0000
  Sn  Sn3806    1.0  0.75549  0.38888  0.64263  1.0000
  Sn  Sn3807    1.0  0.82691  0.36112  0.55930  1.0000
  Sn  Sn3808    1.0  0.74451  0.47222  0.60737  1.0000
  Sn  Sn3809    1.0  0.74451  0.36112  0.52403  1.0000
  Sn  Sn3810    1.0  0.82691  0.47222  0.64263  1.0000
  Sn  Sn3811    1.0  0.71429  0.46762  0.54167  1.0000
  Sn  Sn3812    1.0  0.71429  0.36572  0.62500  1.0000
  Sn  Sn3813    1.0  0.78571  0.38428  0.54167  1.0000
  Sn  Sn3814    1.0  0.78571  0.44905  0.62500  1.0000
  Sn  Sn3815    1.0  0.77024  0.35880  0.75557  1.0000
  Sn  Sn3816    1.0  0.80119  0.35880  0.82777  1.0000
  Sn  Sn3817    1.0  0.77024  0.47453  0.67223  1.0000
  Sn  Sn3818    1.0  0.84167  0.44213  0.75557  1.0000
  Sn  Sn3819    1.0  0.72976  0.39120  0.74443  1.0000
  Sn  Sn3820    1.0  0.72976  0.44213  0.82777  1.0000
  Sn  Sn3821    1.0  0.84167  0.39120  0.67223  1.0000
  Sn  Sn3822    1.0  0.75549  0.44445  0.72597  1.0000
  Sn  Sn3823    1.0  0.81594  0.38888  0.77403  1.0000
  Sn  Sn3824    1.0  0.75549  0.38888  0.80930  1.0000
  Sn  Sn3825    1.0  0.82691  0.36112  0.72597  1.0000
  Sn  Sn3826    1.0  0.74451  0.47222  0.77403  1.0000
  Sn  Sn3827    1.0  0.74451  0.36112  0.69070  1.0000
  Sn  Sn3828    1.0  0.82691  0.47222  0.80930  1.0000
  Sn  Sn3829    1.0  0.71429  0.46762  0.70833  1.0000
  Sn  Sn3830    1.0  0.71429  0.36572  0.79167  1.0000
  Sn  Sn3831    1.0  0.78571  0.38428  0.70833  1.0000
  Sn  Sn3832    1.0  0.78571  0.44905  0.79167  1.0000
  Sn  Sn3833    1.0  0.77024  0.35880  0.92223  1.0000
  Sn  Sn3834    1.0  0.80119  0.47453  0.91110  1.0000
  Sn  Sn3835    1.0  0.80119  0.35880  0.99443  1.0000
  Sn  Sn3836    1.0  0.77024  0.47453  0.83890  1.0000
  Sn  Sn3837    1.0  0.84167  0.44213  0.92223  1.0000
  Sn  Sn3838    1.0  0.72976  0.39120  0.91110  1.0000
  Sn  Sn3839    1.0  0.72976  0.44213  0.99443  1.0000
  Sn  Sn3840    1.0  0.84167  0.39120  0.83890  1.0000
  Sn  Sn3841    1.0  0.75549  0.44445  0.89263  1.0000
  Sn  Sn3842    1.0  0.81594  0.38888  0.94070  1.0000
  Sn  Sn3843    1.0  0.81594  0.44445  0.85737  1.0000
  Sn  Sn3844    1.0  0.75549  0.38888  0.97597  1.0000
  Sn  Sn3845    1.0  0.82691  0.36112  0.89263  1.0000
  Sn  Sn3846    1.0  0.74451  0.47222  0.94070  1.0000
  Sn  Sn3847    1.0  0.74451  0.36112  0.85737  1.0000
  Sn  Sn3848    1.0  0.82691  0.47222  0.97597  1.0000
  Sn  Sn3849    1.0  0.71429  0.46762  0.87500  1.0000
  Sn  Sn3850    1.0  0.71429  0.36572  0.95833  1.0000
  Sn  Sn3851    1.0  0.78571  0.38428  0.87500  1.0000
  Sn  Sn3852    1.0  0.78571  0.44905  0.95833  1.0000
  Sn  Sn3853    1.0  0.77024  0.52547  0.08890  1.0000
  Sn  Sn3854    1.0  0.80119  0.64120  0.07777  1.0000
  Sn  Sn3855    1.0  0.80119  0.52547  0.16110  1.0000
  Sn  Sn3856    1.0  0.77024  0.64120  0.00557  1.0000
  Sn  Sn3857    1.0  0.84167  0.60880  0.08890  1.0000
  Sn  Sn3858    1.0  0.72976  0.55787  0.07777  1.0000
  Sn  Sn3859    1.0  0.72976  0.60880  0.16110  1.0000
  Sn  Sn3860    1.0  0.84167  0.55787  0.00557  1.0000
  Sn  Sn3861    1.0  0.75549  0.61112  0.05930  1.0000
  Sn  Sn3862    1.0  0.81594  0.55555  0.10737  1.0000
  Sn  Sn3863    1.0  0.81594  0.61112  0.02403  1.0000
  Sn  Sn3864    1.0  0.82691  0.52778  0.05930  1.0000
  Sn  Sn3865    1.0  0.74451  0.63888  0.10737  1.0000
  Sn  Sn3866    1.0  0.74451  0.52778  0.02403  1.0000
  Sn  Sn3867    1.0  0.82691  0.63888  0.14263  1.0000
  Sn  Sn3868    1.0  0.71429  0.63428  0.04167  1.0000
  Sn  Sn3869    1.0  0.71429  0.53238  0.12500  1.0000
  Sn  Sn3870    1.0  0.78571  0.61572  0.12500  1.0000
  Sn  Sn3871    1.0  0.77024  0.52547  0.25557  1.0000
  Sn  Sn3872    1.0  0.80119  0.64120  0.24443  1.0000
  Sn  Sn3873    1.0  0.80119  0.52547  0.32777  1.0000
  Sn  Sn3874    1.0  0.84167  0.60880  0.25557  1.0000
  Sn  Sn3875    1.0  0.72976  0.55787  0.24443  1.0000
  Sn  Sn3876    1.0  0.72976  0.60880  0.32777  1.0000
  Sn  Sn3877    1.0  0.84167  0.55787  0.17223  1.0000
  Sn  Sn3878    1.0  0.75549  0.61112  0.22597  1.0000
  Sn  Sn3879    1.0  0.81594  0.55555  0.27403  1.0000
  Sn  Sn3880    1.0  0.81594  0.61112  0.19070  1.0000
  Sn  Sn3881    1.0  0.75549  0.55555  0.30930  1.0000
  Sn  Sn3882    1.0  0.82691  0.52778  0.22597  1.0000
  Sn  Sn3883    1.0  0.74451  0.63888  0.27403  1.0000
  Sn  Sn3884    1.0  0.74451  0.52778  0.19070  1.0000
  Sn  Sn3885    1.0  0.82691  0.63888  0.30930  1.0000
  Sn  Sn3886    1.0  0.71429  0.63428  0.20833  1.0000
  Sn  Sn3887    1.0  0.71429  0.53238  0.29167  1.0000
  Sn  Sn3888    1.0  0.78571  0.55095  0.20833  1.0000
  Sn  Sn3889    1.0  0.78571  0.61572  0.29167  1.0000
  Sn  Sn3890    1.0  0.77024  0.52547  0.42223  1.0000
  Sn  Sn3891    1.0  0.80119  0.64120  0.41110  1.0000
  Sn  Sn3892    1.0  0.80119  0.52547  0.49443  1.0000
  Sn  Sn3893    1.0  0.84167  0.60880  0.42223  1.0000
  Sn  Sn3894    1.0  0.72976  0.55787  0.41110  1.0000
  Sn  Sn3895    1.0  0.72976  0.60880  0.49443  1.0000
  Sn  Sn3896    1.0  0.84167  0.55787  0.33890  1.0000
  Sn  Sn3897    1.0  0.75549  0.61112  0.39263  1.0000
  Sn  Sn3898    1.0  0.81594  0.55555  0.44070  1.0000
  Sn  Sn3899    1.0  0.81594  0.61112  0.35737  1.0000
  Sn  Sn3900    1.0  0.75549  0.55555  0.47597  1.0000
  Sn  Sn3901    1.0  0.82691  0.52778  0.39263  1.0000
  Sn  Sn3902    1.0  0.74451  0.63888  0.44070  1.0000
  Sn  Sn3903    1.0  0.74451  0.52778  0.35737  1.0000
  Sn  Sn3904    1.0  0.82691  0.63888  0.47597  1.0000
  Sn  Sn3905    1.0  0.71429  0.63428  0.37500  1.0000
  Sn  Sn3906    1.0  0.71429  0.53238  0.45833  1.0000
  Sn  Sn3907    1.0  0.78571  0.55095  0.37500  1.0000
  Sn  Sn3908    1.0  0.78571  0.61572  0.45833  1.0000
  Sn  Sn3909    1.0  0.77024  0.52547  0.58890  1.0000
  Sn  Sn3910    1.0  0.80119  0.64120  0.57777  1.0000
  Sn  Sn3911    1.0  0.80119  0.52547  0.66110  1.0000
  Sn  Sn3912    1.0  0.77024  0.64120  0.50557  1.0000
  Sn  Sn3913    1.0  0.84167  0.60880  0.58890  1.0000
  Sn  Sn3914    1.0  0.72976  0.55787  0.57777  1.0000
  Sn  Sn3915    1.0  0.72976  0.60880  0.66110  1.0000
  Sn  Sn3916    1.0  0.84167  0.55787  0.50557  1.0000
  Sn  Sn3917    1.0  0.75549  0.61112  0.55930  1.0000
  Sn  Sn3918    1.0  0.81594  0.55555  0.60737  1.0000
  Sn  Sn3919    1.0  0.81594  0.61112  0.52403  1.0000
  Sn  Sn3920    1.0  0.75549  0.55555  0.64263  1.0000
  Sn  Sn3921    1.0  0.82691  0.52778  0.55930  1.0000
  Sn  Sn3922    1.0  0.74451  0.63888  0.60737  1.0000
  Sn  Sn3923    1.0  0.74451  0.52778  0.52403  1.0000
  Sn  Sn3924    1.0  0.82691  0.63888  0.64263  1.0000
  Sn  Sn3925    1.0  0.71429  0.63428  0.54167  1.0000
  Sn  Sn3926    1.0  0.71429  0.53238  0.62500  1.0000
  Sn  Sn3927    1.0  0.78571  0.55095  0.54167  1.0000
  Sn  Sn3928    1.0  0.78571  0.61572  0.62500  1.0000
  Sn  Sn3929    1.0  0.77024  0.52547  0.75557  1.0000
  Sn  Sn3930    1.0  0.80119  0.52547  0.82777  1.0000
  Sn  Sn3931    1.0  0.77024  0.64120  0.67223  1.0000
  Sn  Sn3932    1.0  0.84167  0.60880  0.75557  1.0000
  Sn  Sn3933    1.0  0.72976  0.55787  0.74443  1.0000
  Sn  Sn3934    1.0  0.72976  0.60880  0.82777  1.0000
  Sn  Sn3935    1.0  0.84167  0.55787  0.67223  1.0000
  Sn  Sn3936    1.0  0.75549  0.61112  0.72597  1.0000
  Sn  Sn3937    1.0  0.81594  0.55555  0.77403  1.0000
  Sn  Sn3938    1.0  0.81594  0.61112  0.69070  1.0000
  Sn  Sn3939    1.0  0.75549  0.55555  0.80930  1.0000
  Sn  Sn3940    1.0  0.82691  0.52778  0.72597  1.0000
  Sn  Sn3941    1.0  0.74451  0.63888  0.77403  1.0000
  Sn  Sn3942    1.0  0.74451  0.52778  0.69070  1.0000
  Sn  Sn3943    1.0  0.82691  0.63888  0.80930  1.0000
  Sn  Sn3944    1.0  0.71429  0.63428  0.70833  1.0000
  Sn  Sn3945    1.0  0.71429  0.53238  0.79167  1.0000
  Sn  Sn3946    1.0  0.78571  0.55095  0.70833  1.0000
  Sn  Sn3947    1.0  0.78571  0.61572  0.79167  1.0000
  Sn  Sn3948    1.0  0.77024  0.52547  0.92223  1.0000
  Sn  Sn3949    1.0  0.80119  0.64120  0.91110  1.0000
  Sn  Sn3950    1.0  0.80119  0.52547  0.99443  1.0000
  Sn  Sn3951    1.0  0.77024  0.64120  0.83890  1.0000
  Sn  Sn3952    1.0  0.84167  0.60880  0.92223  1.0000
  Sn  Sn3953    1.0  0.72976  0.55787  0.91110  1.0000
  Sn  Sn3954    1.0  0.72976  0.60880  0.99443  1.0000
  Sn  Sn3955    1.0  0.84167  0.55787  0.83890  1.0000
  Sn  Sn3956    1.0  0.75549  0.61112  0.89263  1.0000
  Sn  Sn3957    1.0  0.81594  0.55555  0.94070  1.0000
  Sn  Sn3958    1.0  0.81594  0.61112  0.85737  1.0000
  Sn  Sn3959    1.0  0.75549  0.55555  0.97597  1.0000
  Sn  Sn3960    1.0  0.82691  0.52778  0.89263  1.0000
  Sn  Sn3961    1.0  0.74451  0.63888  0.94070  1.0000
  Sn  Sn3962    1.0  0.74451  0.52778  0.85737  1.0000
  Sn  Sn3963    1.0  0.82691  0.63888  0.97597  1.0000
  Sn  Sn3964    1.0  0.71429  0.63428  0.87500  1.0000
  Sn  Sn3965    1.0  0.71429  0.53238  0.95833  1.0000
  Sn  Sn3966    1.0  0.78571  0.55095  0.87500  1.0000
  Sn  Sn3967    1.0  0.78571  0.61572  0.95833  1.0000
  Sn  Sn3968    1.0  0.77024  0.69213  0.08890  1.0000
  Sn  Sn3969    1.0  0.80119  0.80787  0.07777  1.0000
  Sn  Sn3970    1.0  0.80119  0.69213  0.16110  1.0000
  Sn  Sn3971    1.0  0.77024  0.80787  0.00557  1.0000
  Sn  Sn3972    1.0  0.84167  0.77547  0.08890  1.0000
  Sn  Sn3973    1.0  0.72976  0.72453  0.07777  1.0000
  Sn  Sn3974    1.0  0.72976  0.77547  0.16110  1.0000
  Sn  Sn3975    1.0  0.84167  0.72453  0.00557  1.0000
  Sn  Sn3976    1.0  0.75549  0.77778  0.05930  1.0000
  Sn  Sn3977    1.0  0.81594  0.72222  0.10737  1.0000
  Sn  Sn3978    1.0  0.81594  0.77778  0.02403  1.0000
  Sn  Sn3979    1.0  0.75549  0.72222  0.14263  1.0000
  Sn  Sn3980    1.0  0.82691  0.69445  0.05930  1.0000
  Sn  Sn3981    1.0  0.74451  0.80555  0.10737  1.0000
  Sn  Sn3982    1.0  0.74451  0.69445  0.02403  1.0000
  Sn  Sn3983    1.0  0.82691  0.80555  0.14263  1.0000
  Sn  Sn3984    1.0  0.71429  0.80095  0.04167  1.0000
  Sn  Sn3985    1.0  0.71429  0.69905  0.12500  1.0000
  Sn  Sn3986    1.0  0.78571  0.71762  0.04167  1.0000
  Sn  Sn3987    1.0  0.78571  0.78238  0.12500  1.0000
  Sn  Sn3988    1.0  0.77024  0.69213  0.25557  1.0000
  Sn  Sn3989    1.0  0.80119  0.80787  0.24443  1.0000
  Sn  Sn3990    1.0  0.80119  0.69213  0.32777  1.0000
  Sn  Sn3991    1.0  0.77024  0.80787  0.17223  1.0000
  Sn  Sn3992    1.0  0.84167  0.77547  0.25557  1.0000
  Sn  Sn3993    1.0  0.72976  0.72453  0.24443  1.0000
  Sn  Sn3994    1.0  0.72976  0.77547  0.32777  1.0000
  Sn  Sn3995    1.0  0.84167  0.72453  0.17223  1.0000
  Sn  Sn3996    1.0  0.75549  0.77778  0.22597  1.0000
  Sn  Sn3997    1.0  0.81594  0.72222  0.27403  1.0000
  Sn  Sn3998    1.0  0.81594  0.77778  0.19070  1.0000
  Sn  Sn3999    1.0  0.75549  0.72222  0.30930  1.0000
  Sn  Sn4000    1.0  0.82691  0.69445  0.22597  1.0000
  Sn  Sn4001    1.0  0.74451  0.69445  0.19070  1.0000
  Sn  Sn4002    1.0  0.82691  0.80555  0.30930  1.0000
  Sn  Sn4003    1.0  0.71429  0.80095  0.20833  1.0000
  Sn  Sn4004    1.0  0.71429  0.69905  0.29167  1.0000
  Sn  Sn4005    1.0  0.78571  0.71762  0.20833  1.0000
  Sn  Sn4006    1.0  0.78571  0.78238  0.29167  1.0000
  Sn  Sn4007    1.0  0.77024  0.69213  0.42223  1.0000
  Sn  Sn4008    1.0  0.80119  0.80787  0.41110  1.0000
  Sn  Sn4009    1.0  0.80119  0.69213  0.49443  1.0000
  Sn  Sn4010    1.0  0.77024  0.80787  0.33890  1.0000
  Sn  Sn4011    1.0  0.84167  0.77547  0.42223  1.0000
  Sn  Sn4012    1.0  0.72976  0.72453  0.41110  1.0000
  Sn  Sn4013    1.0  0.72976  0.77547  0.49443  1.0000
  Sn  Sn4014    1.0  0.84167  0.72453  0.33890  1.0000
  Sn  Sn4015    1.0  0.75549  0.77778  0.39263  1.0000
  Sn  Sn4016    1.0  0.81594  0.72222  0.44070  1.0000
  Sn  Sn4017    1.0  0.81594  0.77778  0.35737  1.0000
  Sn  Sn4018    1.0  0.75549  0.72222  0.47597  1.0000
  Sn  Sn4019    1.0  0.82691  0.69445  0.39263  1.0000
  Sn  Sn4020    1.0  0.74451  0.80555  0.44070  1.0000
  Sn  Sn4021    1.0  0.74451  0.69445  0.35737  1.0000
  Sn  Sn4022    1.0  0.82691  0.80555  0.47597  1.0000
  Sn  Sn4023    1.0  0.71429  0.80095  0.37500  1.0000
  Sn  Sn4024    1.0  0.71429  0.69905  0.45833  1.0000
  Sn  Sn4025    1.0  0.78571  0.71762  0.37500  1.0000
  Sn  Sn4026    1.0  0.78571  0.78238  0.45833  1.0000
  Sn  Sn4027    1.0  0.77024  0.69213  0.58890  1.0000
  Sn  Sn4028    1.0  0.80119  0.80787  0.57777  1.0000
  Sn  Sn4029    1.0  0.80119  0.69213  0.66110  1.0000
  Sn  Sn4030    1.0  0.77024  0.80787  0.50557  1.0000
  Sn  Sn4031    1.0  0.84167  0.77547  0.58890  1.0000
  Sn  Sn4032    1.0  0.72976  0.72453  0.57777  1.0000
  Sn  Sn4033    1.0  0.72976  0.77547  0.66110  1.0000
  Sn  Sn4034    1.0  0.84167  0.72453  0.50557  1.0000
  Sn  Sn4035    1.0  0.75549  0.77778  0.55930  1.0000
  Sn  Sn4036    1.0  0.81594  0.72222  0.60737  1.0000
  Sn  Sn4037    1.0  0.81594  0.77778  0.52403  1.0000
  Sn  Sn4038    1.0  0.75549  0.72222  0.64263  1.0000
  Sn  Sn4039    1.0  0.82691  0.69445  0.55930  1.0000
  Sn  Sn4040    1.0  0.74451  0.80555  0.60737  1.0000
  Sn  Sn4041    1.0  0.74451  0.69445  0.52403  1.0000
  Sn  Sn4042    1.0  0.82691  0.80555  0.64263  1.0000
  Sn  Sn4043    1.0  0.71429  0.80095  0.54167  1.0000
  Sn  Sn4044    1.0  0.71429  0.69905  0.62500  1.0000
  Sn  Sn4045    1.0  0.78571  0.71762  0.54167  1.0000
  Sn  Sn4046    1.0  0.78571  0.78238  0.62500  1.0000
  Sn  Sn4047    1.0  0.77024  0.69213  0.75557  1.0000
  Sn  Sn4048    1.0  0.80119  0.80787  0.74443  1.0000
  Sn  Sn4049    1.0  0.80119  0.69213  0.82777  1.0000
  Sn  Sn4050    1.0  0.77024  0.80787  0.67223  1.0000
  Sn  Sn4051    1.0  0.84167  0.77547  0.75557  1.0000
  Sn  Sn4052    1.0  0.72976  0.72453  0.74443  1.0000
  Sn  Sn4053    1.0  0.72976  0.77547  0.82777  1.0000
  Sn  Sn4054    1.0  0.84167  0.72453  0.67223  1.0000
  Sn  Sn4055    1.0  0.75549  0.77778  0.72597  1.0000
  Sn  Sn4056    1.0  0.81594  0.72222  0.77403  1.0000
  Sn  Sn4057    1.0  0.81594  0.77778  0.69070  1.0000
  Sn  Sn4058    1.0  0.75549  0.72222  0.80930  1.0000
  Sn  Sn4059    1.0  0.82691  0.69445  0.72597  1.0000
  Sn  Sn4060    1.0  0.74451  0.80555  0.77403  1.0000
  Sn  Sn4061    1.0  0.74451  0.69445  0.69070  1.0000
  Sn  Sn4062    1.0  0.82691  0.80555  0.80930  1.0000
  Sn  Sn4063    1.0  0.71429  0.80095  0.70833  1.0000
  Sn  Sn4064    1.0  0.71429  0.69905  0.79167  1.0000
  Sn  Sn4065    1.0  0.78571  0.71762  0.70833  1.0000
  Sn  Sn4066    1.0  0.78571  0.78238  0.79167  1.0000
  Sn  Sn4067    1.0  0.77024  0.69213  0.92223  1.0000
  Sn  Sn4068    1.0  0.80119  0.80787  0.91110  1.0000
  Sn  Sn4069    1.0  0.80119  0.69213  0.99443  1.0000
  Sn  Sn4070    1.0  0.77024  0.80787  0.83890  1.0000
  Sn  Sn4071    1.0  0.84167  0.77547  0.92223  1.0000
  Sn  Sn4072    1.0  0.72976  0.72453  0.91110  1.0000
  Sn  Sn4073    1.0  0.72976  0.77547  0.99443  1.0000
  Sn  Sn4074    1.0  0.84167  0.72453  0.83890  1.0000
  Sn  Sn4075    1.0  0.75549  0.77778  0.89263  1.0000
  Sn  Sn4076    1.0  0.81594  0.72222  0.94070  1.0000
  Sn  Sn4077    1.0  0.81594  0.77778  0.85737  1.0000
  Sn  Sn4078    1.0  0.75549  0.72222  0.97597  1.0000
  Sn  Sn4079    1.0  0.82691  0.69445  0.89263  1.0000
  Sn  Sn4080    1.0  0.74451  0.80555  0.94070  1.0000
  Sn  Sn4081    1.0  0.74451  0.69445  0.85737  1.0000
  Sn  Sn4082    1.0  0.82691  0.80555  0.97597  1.0000
  Sn  Sn4083    1.0  0.71429  0.80095  0.87500  1.0000
  Sn  Sn4084    1.0  0.71429  0.69905  0.95833  1.0000
  Sn  Sn4085    1.0  0.78571  0.71762  0.87500  1.0000
  Sn  Sn4086    1.0  0.78571  0.78238  0.95833  1.0000
  Sn  Sn4087    1.0  0.77024  0.85880  0.08890  1.0000
  Sn  Sn4088    1.0  0.80119  0.97453  0.07777  1.0000
  Sn  Sn4089    1.0  0.80119  0.85880  0.16110  1.0000
  Sn  Sn4090    1.0  0.77024  0.97453  0.00557  1.0000
  Sn  Sn4091    1.0  0.84167  0.94213  0.08890  1.0000
  Sn  Sn4092    1.0  0.72976  0.89120  0.07777  1.0000
  Sn  Sn4093    1.0  0.72976  0.94213  0.16110  1.0000
  Sn  Sn4094    1.0  0.84167  0.89120  0.00557  1.0000
  Sn  Sn4095    1.0  0.75549  0.94445  0.05930  1.0000
  Sn  Sn4096    1.0  0.81594  0.88888  0.10737  1.0000
  Sn  Sn4097    1.0  0.81594  0.94445  0.02403  1.0000
  Sn  Sn4098    1.0  0.75549  0.88888  0.14263  1.0000
  Sn  Sn4099    1.0  0.82691  0.86112  0.05930  1.0000
  Sn  Sn4100    1.0  0.74451  0.97222  0.10737  1.0000
  Sn  Sn4101    1.0  0.74451  0.86112  0.02403  1.0000
  Sn  Sn4102    1.0  0.82691  0.97222  0.14263  1.0000
  Sn  Sn4103    1.0  0.71429  0.96762  0.04167  1.0000
  Sn  Sn4104    1.0  0.71429  0.86572  0.12500  1.0000
  Sn  Sn4105    1.0  0.78571  0.88428  0.04167  1.0000
  Sn  Sn4106    1.0  0.78571  0.94905  0.12500  1.0000
  Sn  Sn4107    1.0  0.77024  0.85880  0.25557  1.0000
  Sn  Sn4108    1.0  0.80119  0.97453  0.24443  1.0000
  Sn  Sn4109    1.0  0.80119  0.85880  0.32777  1.0000
  Sn  Sn4110    1.0  0.77024  0.97453  0.17223  1.0000
  Sn  Sn4111    1.0  0.84167  0.94213  0.25557  1.0000
  Sn  Sn4112    1.0  0.72976  0.89120  0.24443  1.0000
  Sn  Sn4113    1.0  0.72976  0.94213  0.32777  1.0000
  Sn  Sn4114    1.0  0.84167  0.89120  0.17223  1.0000
  Sn  Sn4115    1.0  0.75549  0.94445  0.22597  1.0000
  Sn  Sn4116    1.0  0.81594  0.88888  0.27403  1.0000
  Sn  Sn4117    1.0  0.81594  0.94445  0.19070  1.0000
  Sn  Sn4118    1.0  0.75549  0.88888  0.30930  1.0000
  Sn  Sn4119    1.0  0.82691  0.86112  0.22597  1.0000
  Sn  Sn4120    1.0  0.74451  0.97222  0.27403  1.0000
  Sn  Sn4121    1.0  0.74451  0.86112  0.19070  1.0000
  Sn  Sn4122    1.0  0.82691  0.97222  0.30930  1.0000
  Sn  Sn4123    1.0  0.71429  0.96762  0.20833  1.0000
  Sn  Sn4124    1.0  0.71429  0.86572  0.29167  1.0000
  Sn  Sn4125    1.0  0.78571  0.88428  0.20833  1.0000
  Sn  Sn4126    1.0  0.78571  0.94905  0.29167  1.0000
  Sn  Sn4127    1.0  0.77024  0.85880  0.42223  1.0000
  Sn  Sn4128    1.0  0.80119  0.97453  0.41110  1.0000
  Sn  Sn4129    1.0  0.80119  0.85880  0.49443  1.0000
  Sn  Sn4130    1.0  0.77024  0.97453  0.33890  1.0000
  Sn  Sn4131    1.0  0.84167  0.94213  0.42223  1.0000
  Sn  Sn4132    1.0  0.72976  0.89120  0.41110  1.0000
  Sn  Sn4133    1.0  0.72976  0.94213  0.49443  1.0000
  Sn  Sn4134    1.0  0.84167  0.89120  0.33890  1.0000
  Sn  Sn4135    1.0  0.75549  0.94445  0.39263  1.0000
  Sn  Sn4136    1.0  0.81594  0.88888  0.44070  1.0000
  Sn  Sn4137    1.0  0.81594  0.94445  0.35737  1.0000
  Sn  Sn4138    1.0  0.75549  0.88888  0.47597  1.0000
  Sn  Sn4139    1.0  0.82691  0.86112  0.39263  1.0000
  Sn  Sn4140    1.0  0.74451  0.97222  0.44070  1.0000
  Sn  Sn4141    1.0  0.74451  0.86112  0.35737  1.0000
  Sn  Sn4142    1.0  0.82691  0.97222  0.47597  1.0000
  Sn  Sn4143    1.0  0.71429  0.96762  0.37500  1.0000
  Sn  Sn4144    1.0  0.71429  0.86572  0.45833  1.0000
  Sn  Sn4145    1.0  0.78571  0.88428  0.37500  1.0000
  Sn  Sn4146    1.0  0.78571  0.94905  0.45833  1.0000
  Sn  Sn4147    1.0  0.77024  0.85880  0.58890  1.0000
  Sn  Sn4148    1.0  0.80119  0.97453  0.57777  1.0000
  Sn  Sn4149    1.0  0.80119  0.85880  0.66110  1.0000
  Sn  Sn4150    1.0  0.77024  0.97453  0.50557  1.0000
  Sn  Sn4151    1.0  0.72976  0.89120  0.57777  1.0000
  Sn  Sn4152    1.0  0.72976  0.94213  0.66110  1.0000
  Sn  Sn4153    1.0  0.84167  0.89120  0.50557  1.0000
  Sn  Sn4154    1.0  0.75549  0.94445  0.55930  1.0000
  Sn  Sn4155    1.0  0.81594  0.88888  0.60737  1.0000
  Sn  Sn4156    1.0  0.81594  0.94445  0.52403  1.0000
  Sn  Sn4157    1.0  0.75549  0.88888  0.64263  1.0000
  Sn  Sn4158    1.0  0.82691  0.86112  0.55930  1.0000
  Sn  Sn4159    1.0  0.74451  0.97222  0.60737  1.0000
  Sn  Sn4160    1.0  0.74451  0.86112  0.52403  1.0000
  Sn  Sn4161    1.0  0.82691  0.97222  0.64263  1.0000
  Sn  Sn4162    1.0  0.71429  0.96762  0.54167  1.0000
  Sn  Sn4163    1.0  0.71429  0.86572  0.62500  1.0000
  Sn  Sn4164    1.0  0.78571  0.88428  0.54167  1.0000
  Sn  Sn4165    1.0  0.78571  0.94905  0.62500  1.0000
  Sn  Sn4166    1.0  0.77024  0.85880  0.75557  1.0000
  Sn  Sn4167    1.0  0.80119  0.97453  0.74443  1.0000
  Sn  Sn4168    1.0  0.80119  0.85880  0.82777  1.0000
  Sn  Sn4169    1.0  0.77024  0.97453  0.67223  1.0000
  Sn  Sn4170    1.0  0.84167  0.94213  0.75557  1.0000
  Sn  Sn4171    1.0  0.72976  0.89120  0.74443  1.0000
  Sn  Sn4172    1.0  0.72976  0.94213  0.82777  1.0000
  Sn  Sn4173    1.0  0.84167  0.89120  0.67223  1.0000
  Sn  Sn4174    1.0  0.75549  0.94445  0.72597  1.0000
  Sn  Sn4175    1.0  0.81594  0.88888  0.77403  1.0000
  Sn  Sn4176    1.0  0.81594  0.94445  0.69070  1.0000
  Sn  Sn4177    1.0  0.75549  0.88888  0.80930  1.0000
  Sn  Sn4178    1.0  0.82691  0.86112  0.72597  1.0000
  Sn  Sn4179    1.0  0.74451  0.97222  0.77403  1.0000
  Sn  Sn4180    1.0  0.74451  0.86112  0.69070  1.0000
  Sn  Sn4181    1.0  0.82691  0.97222  0.80930  1.0000
  Sn  Sn4182    1.0  0.71429  0.96762  0.70833  1.0000
  Sn  Sn4183    1.0  0.71429  0.86572  0.79167  1.0000
  Sn  Sn4184    1.0  0.78571  0.88428  0.70833  1.0000
  Sn  Sn4185    1.0  0.78571  0.94905  0.79167  1.0000
  Sn  Sn4186    1.0  0.77024  0.85880  0.92223  1.0000
  Sn  Sn4187    1.0  0.80119  0.97453  0.91110  1.0000
  Sn  Sn4188    1.0  0.80119  0.85880  0.99443  1.0000
  Sn  Sn4189    1.0  0.77024  0.97453  0.83890  1.0000
  Sn  Sn4190    1.0  0.84167  0.94213  0.92223  1.0000
  Sn  Sn4191    1.0  0.72976  0.89120  0.91110  1.0000
  Sn  Sn4192    1.0  0.72976  0.94213  0.99443  1.0000
  Sn  Sn4193    1.0  0.84167  0.89120  0.83890  1.0000
  Sn  Sn4194    1.0  0.75549  0.94445  0.89263  1.0000
  Sn  Sn4195    1.0  0.81594  0.88888  0.94070  1.0000
  Sn  Sn4196    1.0  0.81594  0.94445  0.85737  1.0000
  Sn  Sn4197    1.0  0.75549  0.88888  0.97597  1.0000
  Sn  Sn4198    1.0  0.82691  0.86112  0.89263  1.0000
  Sn  Sn4199    1.0  0.74451  0.97222  0.94070  1.0000
  Sn  Sn4200    1.0  0.82691  0.97222  0.97597  1.0000
  Sn  Sn4201    1.0  0.71429  0.96762  0.87500  1.0000
  Sn  Sn4202    1.0  0.71429  0.86572  0.95833  1.0000
  Sn  Sn4203    1.0  0.78571  0.88428  0.87500  1.0000
  Sn  Sn4204    1.0  0.78571  0.94905  0.95833  1.0000
  Sn  Sn4205    1.0  0.91310  0.02547  0.08890  1.0000
  Sn  Sn4206    1.0  0.94404  0.14120  0.07777  1.0000
  Sn  Sn4207    1.0  0.94404  0.02547  0.16110  1.0000
  Sn  Sn4208    1.0  0.91310  0.14120  0.00557  1.0000
  Sn  Sn4209    1.0  0.98453  0.10880  0.08890  1.0000
  Sn  Sn4210    1.0  0.87261  0.05787  0.07777  1.0000
  Sn  Sn4211    1.0  0.87261  0.10880  0.16110  1.0000
  Sn  Sn4212    1.0  0.98453  0.05787  0.00557  1.0000
  Sn  Sn4213    1.0  0.89834  0.11112  0.05930  1.0000
  Sn  Sn4214    1.0  0.95880  0.05555  0.10737  1.0000
  Sn  Sn4215    1.0  0.95880  0.11112  0.02403  1.0000
  Sn  Sn4216    1.0  0.89834  0.05555  0.14263  1.0000
  Sn  Sn4217    1.0  0.96977  0.02778  0.05930  1.0000
  Sn  Sn4218    1.0  0.88737  0.13888  0.10737  1.0000
  Sn  Sn4219    1.0  0.88737  0.02778  0.02403  1.0000
  Sn  Sn4220    1.0  0.96977  0.13888  0.14263  1.0000
  Sn  Sn4221    1.0  0.85714  0.13428  0.04167  1.0000
  Sn  Sn4222    1.0  0.85714  0.03238  0.12500  1.0000
  Sn  Sn4223    1.0  0.92857  0.05095  0.04167  1.0000
  Sn  Sn4224    1.0  0.92857  0.11572  0.12500  1.0000
  Sn  Sn4225    1.0  0.91310  0.02547  0.25557  1.0000
  Sn  Sn4226    1.0  0.94404  0.14120  0.24443  1.0000
  Sn  Sn4227    1.0  0.94404  0.02547  0.32777  1.0000
  Sn  Sn4228    1.0  0.91310  0.14120  0.17223  1.0000
  Sn  Sn4229    1.0  0.98453  0.10880  0.25557  1.0000
  Sn  Sn4230    1.0  0.87261  0.05787  0.24443  1.0000
  Sn  Sn4231    1.0  0.87261  0.10880  0.32777  1.0000
  Sn  Sn4232    1.0  0.98453  0.05787  0.17223  1.0000
  Sn  Sn4233    1.0  0.89834  0.11112  0.22597  1.0000
  Sn  Sn4234    1.0  0.95880  0.05555  0.27403  1.0000
  Sn  Sn4235    1.0  0.95880  0.11112  0.19070  1.0000
  Sn  Sn4236    1.0  0.89834  0.05555  0.30930  1.0000
  Sn  Sn4237    1.0  0.96977  0.02778  0.22597  1.0000
  Sn  Sn4238    1.0  0.88737  0.13888  0.27403  1.0000
  Sn  Sn4239    1.0  0.88737  0.02778  0.19070  1.0000
  Sn  Sn4240    1.0  0.96977  0.13888  0.30930  1.0000
  Sn  Sn4241    1.0  0.85714  0.13428  0.20833  1.0000
  Sn  Sn4242    1.0  0.85714  0.03238  0.29167  1.0000
  Sn  Sn4243    1.0  0.92857  0.05095  0.20833  1.0000
  Sn  Sn4244    1.0  0.92857  0.11572  0.29167  1.0000
  Sn  Sn4245    1.0  0.91310  0.02547  0.42223  1.0000
  Sn  Sn4246    1.0  0.94404  0.14120  0.41110  1.0000
  Sn  Sn4247    1.0  0.94404  0.02547  0.49443  1.0000
  Sn  Sn4248    1.0  0.91310  0.14120  0.33890  1.0000
  Sn  Sn4249    1.0  0.98453  0.10880  0.42223  1.0000
  Sn  Sn4250    1.0  0.87261  0.05787  0.41110  1.0000
  Sn  Sn4251    1.0  0.87261  0.10880  0.49443  1.0000
  Sn  Sn4252    1.0  0.98453  0.05787  0.33890  1.0000
  Sn  Sn4253    1.0  0.89834  0.11112  0.39263  1.0000
  Sn  Sn4254    1.0  0.95880  0.05555  0.44070  1.0000
  Sn  Sn4255    1.0  0.95880  0.11112  0.35737  1.0000
  Sn  Sn4256    1.0  0.89834  0.05555  0.47597  1.0000
  Sn  Sn4257    1.0  0.96977  0.02778  0.39263  1.0000
  Sn  Sn4258    1.0  0.88737  0.13888  0.44070  1.0000
  Sn  Sn4259    1.0  0.88737  0.02778  0.35737  1.0000
  Sn  Sn4260    1.0  0.96977  0.13888  0.47597  1.0000
  Sn  Sn4261    1.0  0.85714  0.13428  0.37500  1.0000
  Sn  Sn4262    1.0  0.85714  0.03238  0.45833  1.0000
  Sn  Sn4263    1.0  0.92857  0.05095  0.37500  1.0000
  Sn  Sn4264    1.0  0.92857  0.11572  0.45833  1.0000
  Sn  Sn4265    1.0  0.91310  0.02547  0.58890  1.0000
  Sn  Sn4266    1.0  0.94404  0.14120  0.57777  1.0000
  Sn  Sn4267    1.0  0.94404  0.02547  0.66110  1.0000
  Sn  Sn4268    1.0  0.91310  0.14120  0.50557  1.0000
  Sn  Sn4269    1.0  0.98453  0.10880  0.58890  1.0000
  Sn  Sn4270    1.0  0.87261  0.05787  0.57777  1.0000
  Sn  Sn4271    1.0  0.87261  0.10880  0.66110  1.0000
  Sn  Sn4272    1.0  0.89834  0.11112  0.55930  1.0000
  Sn  Sn4273    1.0  0.95880  0.05555  0.60737  1.0000
  Sn  Sn4274    1.0  0.95880  0.11112  0.52403  1.0000
  Sn  Sn4275    1.0  0.89834  0.05555  0.64263  1.0000
  Sn  Sn4276    1.0  0.96977  0.02778  0.55930  1.0000
  Sn  Sn4277    1.0  0.88737  0.13888  0.60737  1.0000
  Sn  Sn4278    1.0  0.88737  0.02778  0.52403  1.0000
  Sn  Sn4279    1.0  0.96977  0.13888  0.64263  1.0000
  Sn  Sn4280    1.0  0.85714  0.13428  0.54167  1.0000
  Sn  Sn4281    1.0  0.85714  0.03238  0.62500  1.0000
  Sn  Sn4282    1.0  0.92857  0.05095  0.54167  1.0000
  Sn  Sn4283    1.0  0.94404  0.14120  0.74443  1.0000
  Sn  Sn4284    1.0  0.94404  0.02547  0.82777  1.0000
  Sn  Sn4285    1.0  0.91310  0.14120  0.67223  1.0000
  Sn  Sn4286    1.0  0.98453  0.10880  0.75557  1.0000
  Sn  Sn4287    1.0  0.87261  0.05787  0.74443  1.0000
  Sn  Sn4288    1.0  0.87261  0.10880  0.82777  1.0000
  Sn  Sn4289    1.0  0.98453  0.05787  0.67223  1.0000
  Sn  Sn4290    1.0  0.89834  0.11112  0.72597  1.0000
  Sn  Sn4291    1.0  0.95880  0.05555  0.77403  1.0000
  Sn  Sn4292    1.0  0.95880  0.11112  0.69070  1.0000
  Sn  Sn4293    1.0  0.89834  0.05555  0.80930  1.0000
  Sn  Sn4294    1.0  0.96977  0.02778  0.72597  1.0000
  Sn  Sn4295    1.0  0.88737  0.13888  0.77403  1.0000
  Sn  Sn4296    1.0  0.88737  0.02778  0.69070  1.0000
  Sn  Sn4297    1.0  0.96977  0.13888  0.80930  1.0000
  Sn  Sn4298    1.0  0.85714  0.13428  0.70833  1.0000
  Sn  Sn4299    1.0  0.85714  0.03238  0.79167  1.0000
  Sn  Sn4300    1.0  0.92857  0.05095  0.70833  1.0000
  Sn  Sn4301    1.0  0.92857  0.11572  0.79167  1.0000
  Sn  Sn4302    1.0  0.91310  0.02547  0.92223  1.0000
  Sn  Sn4303    1.0  0.94404  0.14120  0.91110  1.0000
  Sn  Sn4304    1.0  0.94404  0.02547  0.99443  1.0000
  Sn  Sn4305    1.0  0.91310  0.14120  0.83890  1.0000
  Sn  Sn4306    1.0  0.98453  0.10880  0.92223  1.0000
  Sn  Sn4307    1.0  0.87261  0.05787  0.91110  1.0000
  Sn  Sn4308    1.0  0.87261  0.10880  0.99443  1.0000
  Sn  Sn4309    1.0  0.98453  0.05787  0.83890  1.0000
  Sn  Sn4310    1.0  0.89834  0.11112  0.89263  1.0000
  Sn  Sn4311    1.0  0.95880  0.05555  0.94070  1.0000
  Sn  Sn4312    1.0  0.95880  0.11112  0.85737  1.0000
  Sn  Sn4313    1.0  0.89834  0.05555  0.97597  1.0000
  Sn  Sn4314    1.0  0.96977  0.02778  0.89263  1.0000
  Sn  Sn4315    1.0  0.88737  0.13888  0.94070  1.0000
  Sn  Sn4316    1.0  0.88737  0.02778  0.85737  1.0000
  Sn  Sn4317    1.0  0.96977  0.13888  0.97597  1.0000
  Sn  Sn4318    1.0  0.85714  0.13428  0.87500  1.0000
  Sn  Sn4319    1.0  0.85714  0.03238  0.95833  1.0000
  Sn  Sn4320    1.0  0.92857  0.05095  0.87500  1.0000
  Sn  Sn4321    1.0  0.92857  0.11572  0.95833  1.0000
  Sn  Sn4322    1.0  0.91310  0.19213  0.08890  1.0000
  Sn  Sn4323    1.0  0.94404  0.30787  0.07777  1.0000
  Sn  Sn4324    1.0  0.94404  0.19213  0.16110  1.0000
  Sn  Sn4325    1.0  0.91310  0.30787  0.00557  1.0000
  Sn  Sn4326    1.0  0.98453  0.27547  0.08890  1.0000
  Sn  Sn4327    1.0  0.87261  0.22453  0.07777  1.0000
  Sn  Sn4328    1.0  0.87261  0.27547  0.16110  1.0000
  Sn  Sn4329    1.0  0.98453  0.22453  0.00557  1.0000
  Sn  Sn4330    1.0  0.89834  0.27778  0.05930  1.0000
  Sn  Sn4331    1.0  0.95880  0.22222  0.10737  1.0000
  Sn  Sn4332    1.0  0.95880  0.27778  0.02403  1.0000
  Sn  Sn4333    1.0  0.89834  0.22222  0.14263  1.0000
  Sn  Sn4334    1.0  0.96977  0.19445  0.05930  1.0000
  Sn  Sn4335    1.0  0.88737  0.30555  0.10737  1.0000
  Sn  Sn4336    1.0  0.88737  0.19445  0.02403  1.0000
  Sn  Sn4337    1.0  0.96977  0.30555  0.14263  1.0000
  Sn  Sn4338    1.0  0.85714  0.30095  0.04167  1.0000
  Sn  Sn4339    1.0  0.85714  0.19905  0.12500  1.0000
  Sn  Sn4340    1.0  0.92857  0.21762  0.04167  1.0000
  Sn  Sn4341    1.0  0.92857  0.28238  0.12500  1.0000
  Sn  Sn4342    1.0  0.91310  0.19213  0.25557  1.0000
  Sn  Sn4343    1.0  0.94404  0.30787  0.24443  1.0000
  Sn  Sn4344    1.0  0.94404  0.19213  0.32777  1.0000
  Sn  Sn4345    1.0  0.91310  0.30787  0.17223  1.0000
  Sn  Sn4346    1.0  0.98453  0.27547  0.25557  1.0000
  Sn  Sn4347    1.0  0.87261  0.22453  0.24443  1.0000
  Sn  Sn4348    1.0  0.87261  0.27547  0.32777  1.0000
  Sn  Sn4349    1.0  0.98453  0.22453  0.17223  1.0000
  Sn  Sn4350    1.0  0.89834  0.27778  0.22597  1.0000
  Sn  Sn4351    1.0  0.95880  0.22222  0.27403  1.0000
  Sn  Sn4352    1.0  0.95880  0.27778  0.19070  1.0000
  Sn  Sn4353    1.0  0.89834  0.22222  0.30930  1.0000
  Sn  Sn4354    1.0  0.96977  0.19445  0.22597  1.0000
  Sn  Sn4355    1.0  0.88737  0.30555  0.27403  1.0000
  Sn  Sn4356    1.0  0.88737  0.19445  0.19070  1.0000
  Sn  Sn4357    1.0  0.96977  0.30555  0.30930  1.0000
  Sn  Sn4358    1.0  0.85714  0.30095  0.20833  1.0000
  Sn  Sn4359    1.0  0.85714  0.19905  0.29167  1.0000
  Sn  Sn4360    1.0  0.92857  0.21762  0.20833  1.0000
  Sn  Sn4361    1.0  0.92857  0.28238  0.29167  1.0000
  Sn  Sn4362    1.0  0.91310  0.19213  0.42223  1.0000
  Sn  Sn4363    1.0  0.94404  0.30787  0.41110  1.0000
  Sn  Sn4364    1.0  0.94404  0.19213  0.49443  1.0000
  Sn  Sn4365    1.0  0.91310  0.30787  0.33890  1.0000
  Sn  Sn4366    1.0  0.98453  0.27547  0.42223  1.0000
  Sn  Sn4367    1.0  0.87261  0.22453  0.41110  1.0000
  Sn  Sn4368    1.0  0.87261  0.27547  0.49443  1.0000
  Sn  Sn4369    1.0  0.98453  0.22453  0.33890  1.0000
  Sn  Sn4370    1.0  0.89834  0.27778  0.39263  1.0000
  Sn  Sn4371    1.0  0.95880  0.22222  0.44070  1.0000
  Sn  Sn4372    1.0  0.95880  0.27778  0.35737  1.0000
  Sn  Sn4373    1.0  0.89834  0.22222  0.47597  1.0000
  Sn  Sn4374    1.0  0.96977  0.19445  0.39263  1.0000
  Sn  Sn4375    1.0  0.88737  0.30555  0.44070  1.0000
  Sn  Sn4376    1.0  0.88737  0.19445  0.35737  1.0000
  Sn  Sn4377    1.0  0.96977  0.30555  0.47597  1.0000
  Sn  Sn4378    1.0  0.85714  0.30095  0.37500  1.0000
  Sn  Sn4379    1.0  0.85714  0.19905  0.45833  1.0000
  Sn  Sn4380    1.0  0.92857  0.21762  0.37500  1.0000
  Sn  Sn4381    1.0  0.92857  0.28238  0.45833  1.0000
  Sn  Sn4382    1.0  0.91310  0.19213  0.58890  1.0000
  Sn  Sn4383    1.0  0.94404  0.30787  0.57777  1.0000
  Sn  Sn4384    1.0  0.94404  0.19213  0.66110  1.0000
  Sn  Sn4385    1.0  0.91310  0.30787  0.50557  1.0000
  Sn  Sn4386    1.0  0.98453  0.27547  0.58890  1.0000
  Sn  Sn4387    1.0  0.87261  0.22453  0.57777  1.0000
  Sn  Sn4388    1.0  0.87261  0.27547  0.66110  1.0000
  Sn  Sn4389    1.0  0.98453  0.22453  0.50557  1.0000
  Sn  Sn4390    1.0  0.89834  0.27778  0.55930  1.0000
  Sn  Sn4391    1.0  0.95880  0.22222  0.60737  1.0000
  Sn  Sn4392    1.0  0.95880  0.27778  0.52403  1.0000
  Sn  Sn4393    1.0  0.89834  0.22222  0.64263  1.0000
  Sn  Sn4394    1.0  0.96977  0.19445  0.55930  1.0000
  Sn  Sn4395    1.0  0.88737  0.30555  0.60737  1.0000
  Sn  Sn4396    1.0  0.88737  0.19445  0.52403  1.0000
  Sn  Sn4397    1.0  0.96977  0.30555  0.64263  1.0000
  Sn  Sn4398    1.0  0.85714  0.30095  0.54167  1.0000
  Sn  Sn4399    1.0  0.85714  0.19905  0.62500  1.0000
  Sn  Sn4400    1.0  0.92857  0.21762  0.54167  1.0000
  Sn  Sn4401    1.0  0.92857  0.28238  0.62500  1.0000
  Sn  Sn4402    1.0  0.91310  0.19213  0.75557  1.0000
  Sn  Sn4403    1.0  0.94404  0.30787  0.74443  1.0000
  Sn  Sn4404    1.0  0.94404  0.19213  0.82777  1.0000
  Sn  Sn4405    1.0  0.91310  0.30787  0.67223  1.0000
  Sn  Sn4406    1.0  0.98453  0.27547  0.75557  1.0000
  Sn  Sn4407    1.0  0.87261  0.22453  0.74443  1.0000
  Sn  Sn4408    1.0  0.87261  0.27547  0.82777  1.0000
  Sn  Sn4409    1.0  0.98453  0.22453  0.67223  1.0000
  Sn  Sn4410    1.0  0.89834  0.27778  0.72597  1.0000
  Sn  Sn4411    1.0  0.95880  0.22222  0.77403  1.0000
  Sn  Sn4412    1.0  0.95880  0.27778  0.69070  1.0000
  Sn  Sn4413    1.0  0.89834  0.22222  0.80930  1.0000
  Sn  Sn4414    1.0  0.96977  0.19445  0.72597  1.0000
  Sn  Sn4415    1.0  0.88737  0.19445  0.69070  1.0000
  Sn  Sn4416    1.0  0.96977  0.30555  0.80930  1.0000
  Sn  Sn4417    1.0  0.85714  0.30095  0.70833  1.0000
  Sn  Sn4418    1.0  0.85714  0.19905  0.79167  1.0000
  Sn  Sn4419    1.0  0.92857  0.21762  0.70833  1.0000
  Sn  Sn4420    1.0  0.92857  0.28238  0.79167  1.0000
  Sn  Sn4421    1.0  0.91310  0.19213  0.92223  1.0000
  Sn  Sn4422    1.0  0.94404  0.30787  0.91110  1.0000
  Sn  Sn4423    1.0  0.94404  0.19213  0.99443  1.0000
  Sn  Sn4424    1.0  0.91310  0.30787  0.83890  1.0000
  Sn  Sn4425    1.0  0.98453  0.27547  0.92223  1.0000
  Sn  Sn4426    1.0  0.87261  0.22453  0.91110  1.0000
  Sn  Sn4427    1.0  0.87261  0.27547  0.99443  1.0000
  Sn  Sn4428    1.0  0.98453  0.22453  0.83890  1.0000
  Sn  Sn4429    1.0  0.89834  0.27778  0.89263  1.0000
  Sn  Sn4430    1.0  0.95880  0.22222  0.94070  1.0000
  Sn  Sn4431    1.0  0.95880  0.27778  0.85737  1.0000
  Sn  Sn4432    1.0  0.89834  0.22222  0.97597  1.0000
  Sn  Sn4433    1.0  0.96977  0.19445  0.89263  1.0000
  Sn  Sn4434    1.0  0.88737  0.30555  0.94070  1.0000
  Sn  Sn4435    1.0  0.88737  0.19445  0.85737  1.0000
  Sn  Sn4436    1.0  0.96977  0.30555  0.97597  1.0000
  Sn  Sn4437    1.0  0.85714  0.30095  0.87500  1.0000
  Sn  Sn4438    1.0  0.85714  0.19905  0.95833  1.0000
  Sn  Sn4439    1.0  0.92857  0.21762  0.87500  1.0000
  Sn  Sn4440    1.0  0.92857  0.28238  0.95833  1.0000
  Sn  Sn4441    1.0  0.91310  0.35880  0.08890  1.0000
  Sn  Sn4442    1.0  0.94404  0.47453  0.07777  1.0000
  Sn  Sn4443    1.0  0.94404  0.35880  0.16110  1.0000
  Sn  Sn4444    1.0  0.91310  0.47453  0.00557  1.0000
  Sn  Sn4445    1.0  0.98453  0.44213  0.08890  1.0000
  Sn  Sn4446    1.0  0.87261  0.39120  0.07777  1.0000
  Sn  Sn4447    1.0  0.87261  0.44213  0.16110  1.0000
  Sn  Sn4448    1.0  0.98453  0.39120  0.00557  1.0000
  Sn  Sn4449    1.0  0.89834  0.44445  0.05930  1.0000
  Sn  Sn4450    1.0  0.95880  0.38888  0.10737  1.0000
  Sn  Sn4451    1.0  0.89834  0.38888  0.14263  1.0000
  Sn  Sn4452    1.0  0.96977  0.36112  0.05930  1.0000
  Sn  Sn4453    1.0  0.88737  0.47222  0.10737  1.0000
  Sn  Sn4454    1.0  0.88737  0.36112  0.02403  1.0000
  Sn  Sn4455    1.0  0.96977  0.47222  0.14263  1.0000
  Sn  Sn4456    1.0  0.85714  0.46762  0.04167  1.0000
  Sn  Sn4457    1.0  0.85714  0.36572  0.12500  1.0000
  Sn  Sn4458    1.0  0.92857  0.38428  0.04167  1.0000
  Sn  Sn4459    1.0  0.92857  0.44905  0.12500  1.0000
  Sn  Sn4460    1.0  0.91310  0.35880  0.25557  1.0000
  Sn  Sn4461    1.0  0.94404  0.47453  0.24443  1.0000
  Sn  Sn4462    1.0  0.94404  0.35880  0.32777  1.0000
  Sn  Sn4463    1.0  0.91310  0.47453  0.17223  1.0000
  Sn  Sn4464    1.0  0.98453  0.44213  0.25557  1.0000
  Sn  Sn4465    1.0  0.87261  0.44213  0.32777  1.0000
  Sn  Sn4466    1.0  0.98453  0.39120  0.17223  1.0000
  Sn  Sn4467    1.0  0.89834  0.44445  0.22597  1.0000
  Sn  Sn4468    1.0  0.95880  0.38888  0.27403  1.0000
  Sn  Sn4469    1.0  0.95880  0.44445  0.19070  1.0000
  Sn  Sn4470    1.0  0.89834  0.38888  0.30930  1.0000
  Sn  Sn4471    1.0  0.96977  0.36112  0.22597  1.0000
  Sn  Sn4472    1.0  0.88737  0.47222  0.27403  1.0000
  Sn  Sn4473    1.0  0.88737  0.36112  0.19070  1.0000
  Sn  Sn4474    1.0  0.96977  0.47222  0.30930  1.0000
  Sn  Sn4475    1.0  0.85714  0.46762  0.20833  1.0000
  Sn  Sn4476    1.0  0.85714  0.36572  0.29167  1.0000
  Sn  Sn4477    1.0  0.92857  0.44905  0.29167  1.0000
  Sn  Sn4478    1.0  0.91310  0.35880  0.42223  1.0000
  Sn  Sn4479    1.0  0.94404  0.47453  0.41110  1.0000
  Sn  Sn4480    1.0  0.94404  0.35880  0.49443  1.0000
  Sn  Sn4481    1.0  0.91310  0.47453  0.33890  1.0000
  Sn  Sn4482    1.0  0.98453  0.44213  0.42223  1.0000
  Sn  Sn4483    1.0  0.87261  0.39120  0.41110  1.0000
  Sn  Sn4484    1.0  0.87261  0.44213  0.49443  1.0000
  Sn  Sn4485    1.0  0.98453  0.39120  0.33890  1.0000
  Sn  Sn4486    1.0  0.89834  0.44445  0.39263  1.0000
  Sn  Sn4487    1.0  0.95880  0.38888  0.44070  1.0000
  Sn  Sn4488    1.0  0.95880  0.44445  0.35737  1.0000
  Sn  Sn4489    1.0  0.89834  0.38888  0.47597  1.0000
  Sn  Sn4490    1.0  0.96977  0.36112  0.39263  1.0000
  Sn  Sn4491    1.0  0.88737  0.47222  0.44070  1.0000
  Sn  Sn4492    1.0  0.88737  0.36112  0.35737  1.0000
  Sn  Sn4493    1.0  0.96977  0.47222  0.47597  1.0000
  Sn  Sn4494    1.0  0.85714  0.46762  0.37500  1.0000
  Sn  Sn4495    1.0  0.85714  0.36572  0.45833  1.0000
  Sn  Sn4496    1.0  0.92857  0.44905  0.45833  1.0000
  Sn  Sn4497    1.0  0.91310  0.35880  0.58890  1.0000
  Sn  Sn4498    1.0  0.94404  0.47453  0.57777  1.0000
  Sn  Sn4499    1.0  0.94404  0.35880  0.66110  1.0000
  Sn  Sn4500    1.0  0.91310  0.47453  0.50557  1.0000
  Sn  Sn4501    1.0  0.98453  0.44213  0.58890  1.0000
  Sn  Sn4502    1.0  0.87261  0.39120  0.57777  1.0000
  Sn  Sn4503    1.0  0.87261  0.44213  0.66110  1.0000
  Sn  Sn4504    1.0  0.89834  0.44445  0.55930  1.0000
  Sn  Sn4505    1.0  0.95880  0.38888  0.60737  1.0000
  Sn  Sn4506    1.0  0.95880  0.44445  0.52403  1.0000
  Sn  Sn4507    1.0  0.89834  0.38888  0.64263  1.0000
  Sn  Sn4508    1.0  0.96977  0.36112  0.55930  1.0000
  Sn  Sn4509    1.0  0.88737  0.47222  0.60737  1.0000
  Sn  Sn4510    1.0  0.88737  0.36112  0.52403  1.0000
  Sn  Sn4511    1.0  0.96977  0.47222  0.64263  1.0000
  Sn  Sn4512    1.0  0.85714  0.46762  0.54167  1.0000
  Sn  Sn4513    1.0  0.85714  0.36572  0.62500  1.0000
  Sn  Sn4514    1.0  0.92857  0.38428  0.54167  1.0000
  Sn  Sn4515    1.0  0.92857  0.44905  0.62500  1.0000
  Sn  Sn4516    1.0  0.91310  0.35880  0.75557  1.0000
  Sn  Sn4517    1.0  0.94404  0.47453  0.74443  1.0000
  Sn  Sn4518    1.0  0.94404  0.35880  0.82777  1.0000
  Sn  Sn4519    1.0  0.91310  0.47453  0.67223  1.0000
  Sn  Sn4520    1.0  0.98453  0.44213  0.75557  1.0000
  Sn  Sn4521    1.0  0.87261  0.39120  0.74443  1.0000
  Sn  Sn4522    1.0  0.87261  0.44213  0.82777  1.0000
  Sn  Sn4523    1.0  0.98453  0.39120  0.67223  1.0000
  Sn  Sn4524    1.0  0.89834  0.44445  0.72597  1.0000
  Sn  Sn4525    1.0  0.95880  0.38888  0.77403  1.0000
  Sn  Sn4526    1.0  0.95880  0.44445  0.69070  1.0000
  Sn  Sn4527    1.0  0.89834  0.38888  0.80930  1.0000
  Sn  Sn4528    1.0  0.96977  0.36112  0.72597  1.0000
  Sn  Sn4529    1.0  0.88737  0.47222  0.77403  1.0000
  Sn  Sn4530    1.0  0.88737  0.36112  0.69070  1.0000
  Sn  Sn4531    1.0  0.96977  0.47222  0.80930  1.0000
  Sn  Sn4532    1.0  0.85714  0.46762  0.70833  1.0000
  Sn  Sn4533    1.0  0.85714  0.36572  0.79167  1.0000
  Sn  Sn4534    1.0  0.92857  0.38428  0.70833  1.0000
  Sn  Sn4535    1.0  0.92857  0.44905  0.79167  1.0000
  Sn  Sn4536    1.0  0.91310  0.35880  0.92223  1.0000
  Sn  Sn4537    1.0  0.94404  0.47453  0.91110  1.0000
  Sn  Sn4538    1.0  0.94404  0.35880  0.99443  1.0000
  Sn  Sn4539    1.0  0.91310  0.47453  0.83890  1.0000
  Sn  Sn4540    1.0  0.98453  0.44213  0.92223  1.0000
  Sn  Sn4541    1.0  0.87261  0.39120  0.91110  1.0000
  Sn  Sn4542    1.0  0.87261  0.44213  0.99443  1.0000
  Sn  Sn4543    1.0  0.98453  0.39120  0.83890  1.0000
  Sn  Sn4544    1.0  0.89834  0.44445  0.89263  1.0000
  Sn  Sn4545    1.0  0.95880  0.38888  0.94070  1.0000
  Sn  Sn4546    1.0  0.95880  0.44445  0.85737  1.0000
  Sn  Sn4547    1.0  0.89834  0.38888  0.97597  1.0000
  Sn  Sn4548    1.0  0.96977  0.36112  0.89263  1.0000
  Sn  Sn4549    1.0  0.88737  0.47222  0.94070  1.0000
  Sn  Sn4550    1.0  0.88737  0.36112  0.85737  1.0000
  Sn  Sn4551    1.0  0.96977  0.47222  0.97597  1.0000
  Sn  Sn4552    1.0  0.85714  0.46762  0.87500  1.0000
  Sn  Sn4553    1.0  0.85714  0.36572  0.95833  1.0000
  Sn  Sn4554    1.0  0.92857  0.38428  0.87500  1.0000
  Sn  Sn4555    1.0  0.92857  0.44905  0.95833  1.0000
  Sn  Sn4556    1.0  0.91310  0.52547  0.08890  1.0000
  Sn  Sn4557    1.0  0.94404  0.64120  0.07777  1.0000
  Sn  Sn4558    1.0  0.94404  0.52547  0.16110  1.0000
  Sn  Sn4559    1.0  0.91310  0.64120  0.00557  1.0000
  Sn  Sn4560    1.0  0.98453  0.60880  0.08890  1.0000
  Sn  Sn4561    1.0  0.87261  0.55787  0.07777  1.0000
  Sn  Sn4562    1.0  0.87261  0.60880  0.16110  1.0000
  Sn  Sn4563    1.0  0.98453  0.55787  0.00557  1.0000
  Sn  Sn4564    1.0  0.89834  0.61112  0.05930  1.0000
  Sn  Sn4565    1.0  0.95880  0.55555  0.10737  1.0000
  Sn  Sn4566    1.0  0.95880  0.61112  0.02403  1.0000
  Sn  Sn4567    1.0  0.89834  0.55555  0.14263  1.0000
  Sn  Sn4568    1.0  0.96977  0.52778  0.05930  1.0000
  Sn  Sn4569    1.0  0.88737  0.63888  0.10737  1.0000
  Sn  Sn4570    1.0  0.88737  0.52778  0.02403  1.0000
  Sn  Sn4571    1.0  0.96977  0.63888  0.14263  1.0000
  Sn  Sn4572    1.0  0.85714  0.63428  0.04167  1.0000
  Sn  Sn4573    1.0  0.85714  0.53238  0.12500  1.0000
  Sn  Sn4574    1.0  0.92857  0.55095  0.04167  1.0000
  Sn  Sn4575    1.0  0.92857  0.61572  0.12500  1.0000
  Sn  Sn4576    1.0  0.91310  0.52547  0.25557  1.0000
  Sn  Sn4577    1.0  0.94404  0.64120  0.24443  1.0000
  Sn  Sn4578    1.0  0.94404  0.52547  0.32777  1.0000
  Sn  Sn4579    1.0  0.91310  0.64120  0.17223  1.0000
  Sn  Sn4580    1.0  0.87261  0.55787  0.24443  1.0000
  Sn  Sn4581    1.0  0.87261  0.60880  0.32777  1.0000
  Sn  Sn4582    1.0  0.98453  0.55787  0.17223  1.0000
  Sn  Sn4583    1.0  0.89834  0.61112  0.22597  1.0000
  Sn  Sn4584    1.0  0.95880  0.55555  0.27403  1.0000
  Sn  Sn4585    1.0  0.95880  0.61112  0.19070  1.0000
  Sn  Sn4586    1.0  0.89834  0.55555  0.30930  1.0000
  Sn  Sn4587    1.0  0.96977  0.52778  0.22597  1.0000
  Sn  Sn4588    1.0  0.88737  0.63888  0.27403  1.0000
  Sn  Sn4589    1.0  0.88737  0.52778  0.19070  1.0000
  Sn  Sn4590    1.0  0.96977  0.63888  0.30930  1.0000
  Sn  Sn4591    1.0  0.85714  0.63428  0.20833  1.0000
  Sn  Sn4592    1.0  0.85714  0.53238  0.29167  1.0000
  Sn  Sn4593    1.0  0.92857  0.55095  0.20833  1.0000
  Sn  Sn4594    1.0  0.92857  0.61572  0.29167  1.0000
  Sn  Sn4595    1.0  0.91310  0.52547  0.42223  1.0000
  Sn  Sn4596    1.0  0.94404  0.64120  0.41110  1.0000
  Sn  Sn4597    1.0  0.94404  0.52547  0.49443  1.0000
  Sn  Sn4598    1.0  0.91310  0.64120  0.33890  1.0000
  Sn  Sn4599    1.0  0.98453  0.60880  0.42223  1.0000
  Sn  Sn4600    1.0  0.87261  0.55787  0.41110  1.0000
  Sn  Sn4601    1.0  0.87261  0.60880  0.49443  1.0000
  Sn  Sn4602    1.0  0.98453  0.55787  0.33890  1.0000
  Sn  Sn4603    1.0  0.89834  0.61112  0.39263  1.0000
  Sn  Sn4604    1.0  0.95880  0.55555  0.44070  1.0000
  Sn  Sn4605    1.0  0.95880  0.61112  0.35737  1.0000
  Sn  Sn4606    1.0  0.89834  0.55555  0.47597  1.0000
  Sn  Sn4607    1.0  0.96977  0.52778  0.39263  1.0000
  Sn  Sn4608    1.0  0.88737  0.63888  0.44070  1.0000
  Sn  Sn4609    1.0  0.88737  0.52778  0.35737  1.0000
  Sn  Sn4610    1.0  0.96977  0.63888  0.47597  1.0000
  Sn  Sn4611    1.0  0.85714  0.63428  0.37500  1.0000
  Sn  Sn4612    1.0  0.85714  0.53238  0.45833  1.0000
  Sn  Sn4613    1.0  0.92857  0.55095  0.37500  1.0000
  Sn  Sn4614    1.0  0.92857  0.61572  0.45833  1.0000
  Sn  Sn4615    1.0  0.91310  0.52547  0.58890  1.0000
  Sn  Sn4616    1.0  0.94404  0.64120  0.57777  1.0000
  Sn  Sn4617    1.0  0.94404  0.52547  0.66110  1.0000
  Sn  Sn4618    1.0  0.91310  0.64120  0.50557  1.0000
  Sn  Sn4619    1.0  0.98453  0.60880  0.58890  1.0000
  Sn  Sn4620    1.0  0.87261  0.55787  0.57777  1.0000
  Sn  Sn4621    1.0  0.87261  0.60880  0.66110  1.0000
  Sn  Sn4622    1.0  0.98453  0.55787  0.50557  1.0000
  Sn  Sn4623    1.0  0.89834  0.61112  0.55930  1.0000
  Sn  Sn4624    1.0  0.95880  0.55555  0.60737  1.0000
  Sn  Sn4625    1.0  0.95880  0.61112  0.52403  1.0000
  Sn  Sn4626    1.0  0.89834  0.55555  0.64263  1.0000
  Sn  Sn4627    1.0  0.96977  0.52778  0.55930  1.0000
  Sn  Sn4628    1.0  0.88737  0.63888  0.60737  1.0000
  Sn  Sn4629    1.0  0.88737  0.52778  0.52403  1.0000
  Sn  Sn4630    1.0  0.96977  0.63888  0.64263  1.0000
  Sn  Sn4631    1.0  0.85714  0.63428  0.54167  1.0000
  Sn  Sn4632    1.0  0.85714  0.53238  0.62500  1.0000
  Sn  Sn4633    1.0  0.92857  0.55095  0.54167  1.0000
  Sn  Sn4634    1.0  0.92857  0.61572  0.62500  1.0000
  Sn  Sn4635    1.0  0.91310  0.52547  0.75557  1.0000
  Sn  Sn4636    1.0  0.94404  0.64120  0.74443  1.0000
  Sn  Sn4637    1.0  0.91310  0.64120  0.67223  1.0000
  Sn  Sn4638    1.0  0.87261  0.55787  0.74443  1.0000
  Sn  Sn4639    1.0  0.87261  0.60880  0.82777  1.0000
  Sn  Sn4640    1.0  0.98453  0.55787  0.67223  1.0000
  Sn  Sn4641    1.0  0.89834  0.61112  0.72597  1.0000
  Sn  Sn4642    1.0  0.95880  0.55555  0.77403  1.0000
  Sn  Sn4643    1.0  0.95880  0.61112  0.69070  1.0000
  Sn  Sn4644    1.0  0.89834  0.55555  0.80930  1.0000
  Sn  Sn4645    1.0  0.96977  0.52778  0.72597  1.0000
  Sn  Sn4646    1.0  0.88737  0.63888  0.77403  1.0000
  Sn  Sn4647    1.0  0.88737  0.52778  0.69070  1.0000
  Sn  Sn4648    1.0  0.96977  0.63888  0.80930  1.0000
  Sn  Sn4649    1.0  0.85714  0.63428  0.70833  1.0000
  Sn  Sn4650    1.0  0.85714  0.53238  0.79167  1.0000
  Sn  Sn4651    1.0  0.92857  0.55095  0.70833  1.0000
  Sn  Sn4652    1.0  0.92857  0.61572  0.79167  1.0000
  Sn  Sn4653    1.0  0.91310  0.52547  0.92223  1.0000
  Sn  Sn4654    1.0  0.94404  0.64120  0.91110  1.0000
  Sn  Sn4655    1.0  0.94404  0.52547  0.99443  1.0000
  Sn  Sn4656    1.0  0.91310  0.64120  0.83890  1.0000
  Sn  Sn4657    1.0  0.98453  0.60880  0.92223  1.0000
  Sn  Sn4658    1.0  0.87261  0.60880  0.99443  1.0000
  Sn  Sn4659    1.0  0.98453  0.55787  0.83890  1.0000
  Sn  Sn4660    1.0  0.89834  0.61112  0.89263  1.0000
  Sn  Sn4661    1.0  0.95880  0.55555  0.94070  1.0000
  Sn  Sn4662    1.0  0.95880  0.61112  0.85737  1.0000
  Sn  Sn4663    1.0  0.89834  0.55555  0.97597  1.0000
  Sn  Sn4664    1.0  0.96977  0.52778  0.89263  1.0000
  Sn  Sn4665    1.0  0.88737  0.63888  0.94070  1.0000
  Sn  Sn4666    1.0  0.88737  0.52778  0.85737  1.0000
  Sn  Sn4667    1.0  0.96977  0.63888  0.97597  1.0000
  Sn  Sn4668    1.0  0.85714  0.63428  0.87500  1.0000
  Sn  Sn4669    1.0  0.85714  0.53238  0.95833  1.0000
  Sn  Sn4670    1.0  0.92857  0.55095  0.87500  1.0000
  Sn  Sn4671    1.0  0.92857  0.61572  0.95833  1.0000
  Sn  Sn4672    1.0  0.91310  0.69213  0.08890  1.0000
  Sn  Sn4673    1.0  0.94404  0.80787  0.07777  1.0000
  Sn  Sn4674    1.0  0.94404  0.69213  0.16110  1.0000
  Sn  Sn4675    1.0  0.91310  0.80787  0.00557  1.0000
  Sn  Sn4676    1.0  0.98453  0.77547  0.08890  1.0000
  Sn  Sn4677    1.0  0.87261  0.72453  0.07777  1.0000
  Sn  Sn4678    1.0  0.87261  0.77547  0.16110  1.0000
  Sn  Sn4679    1.0  0.98453  0.72453  0.00557  1.0000
  Sn  Sn4680    1.0  0.89834  0.77778  0.05930  1.0000
  Sn  Sn4681    1.0  0.95880  0.72222  0.10737  1.0000
  Sn  Sn4682    1.0  0.95880  0.77778  0.02403  1.0000
  Sn  Sn4683    1.0  0.89834  0.72222  0.14263  1.0000
  Sn  Sn4684    1.0  0.96977  0.69445  0.05930  1.0000
  Sn  Sn4685    1.0  0.88737  0.80555  0.10737  1.0000
  Sn  Sn4686    1.0  0.88737  0.69445  0.02403  1.0000
  Sn  Sn4687    1.0  0.96977  0.80555  0.14263  1.0000
  Sn  Sn4688    1.0  0.85714  0.80095  0.04167  1.0000
  Sn  Sn4689    1.0  0.85714  0.69905  0.12500  1.0000
  Sn  Sn4690    1.0  0.92857  0.71762  0.04167  1.0000
  Sn  Sn4691    1.0  0.92857  0.78238  0.12500  1.0000
  Sn  Sn4692    1.0  0.91310  0.69213  0.25557  1.0000
  Sn  Sn4693    1.0  0.94404  0.80787  0.24443  1.0000
  Sn  Sn4694    1.0  0.94404  0.69213  0.32777  1.0000
  Sn  Sn4695    1.0  0.91310  0.80787  0.17223  1.0000
  Sn  Sn4696    1.0  0.98453  0.77547  0.25557  1.0000
  Sn  Sn4697    1.0  0.87261  0.72453  0.24443  1.0000
  Sn  Sn4698    1.0  0.87261  0.77547  0.32777  1.0000
  Sn  Sn4699    1.0  0.98453  0.72453  0.17223  1.0000
  Sn  Sn4700    1.0  0.89834  0.77778  0.22597  1.0000
  Sn  Sn4701    1.0  0.95880  0.77778  0.19070  1.0000
  Sn  Sn4702    1.0  0.89834  0.72222  0.30930  1.0000
  Sn  Sn4703    1.0  0.96977  0.69445  0.22597  1.0000
  Sn  Sn4704    1.0  0.88737  0.80555  0.27403  1.0000
  Sn  Sn4705    1.0  0.88737  0.69445  0.19070  1.0000
  Sn  Sn4706    1.0  0.96977  0.80555  0.30930  1.0000
  Sn  Sn4707    1.0  0.85714  0.80095  0.20833  1.0000
  Sn  Sn4708    1.0  0.85714  0.69905  0.29167  1.0000
  Sn  Sn4709    1.0  0.92857  0.71762  0.20833  1.0000
  Sn  Sn4710    1.0  0.92857  0.78238  0.29167  1.0000
  Sn  Sn4711    1.0  0.91310  0.69213  0.42223  1.0000
  Sn  Sn4712    1.0  0.94404  0.80787  0.41110  1.0000
  Sn  Sn4713    1.0  0.91310  0.80787  0.33890  1.0000
  Sn  Sn4714    1.0  0.98453  0.77547  0.42223  1.0000
  Sn  Sn4715    1.0  0.87261  0.72453  0.41110  1.0000
  Sn  Sn4716    1.0  0.87261  0.77547  0.49443  1.0000
  Sn  Sn4717    1.0  0.98453  0.72453  0.33890  1.0000
  Sn  Sn4718    1.0  0.89834  0.77778  0.39263  1.0000
  Sn  Sn4719    1.0  0.95880  0.72222  0.44070  1.0000
  Sn  Sn4720    1.0  0.95880  0.77778  0.35737  1.0000
  Sn  Sn4721    1.0  0.89834  0.72222  0.47597  1.0000
  Sn  Sn4722    1.0  0.96977  0.69445  0.39263  1.0000
  Sn  Sn4723    1.0  0.88737  0.80555  0.44070  1.0000
  Sn  Sn4724    1.0  0.88737  0.69445  0.35737  1.0000
  Sn  Sn4725    1.0  0.96977  0.80555  0.47597  1.0000
  Sn  Sn4726    1.0  0.85714  0.80095  0.37500  1.0000
  Sn  Sn4727    1.0  0.92857  0.71762  0.37500  1.0000
  Sn  Sn4728    1.0  0.92857  0.78238  0.45833  1.0000
  Sn  Sn4729    1.0  0.91310  0.69213  0.58890  1.0000
  Sn  Sn4730    1.0  0.94404  0.80787  0.57777  1.0000
  Sn  Sn4731    1.0  0.94404  0.69213  0.66110  1.0000
  Sn  Sn4732    1.0  0.91310  0.80787  0.50557  1.0000
  Sn  Sn4733    1.0  0.98453  0.77547  0.58890  1.0000
  Sn  Sn4734    1.0  0.87261  0.72453  0.57777  1.0000
  Sn  Sn4735    1.0  0.87261  0.77547  0.66110  1.0000
  Sn  Sn4736    1.0  0.98453  0.72453  0.50557  1.0000
  Sn  Sn4737    1.0  0.89834  0.77778  0.55930  1.0000
  Sn  Sn4738    1.0  0.95880  0.72222  0.60737  1.0000
  Sn  Sn4739    1.0  0.95880  0.77778  0.52403  1.0000
  Sn  Sn4740    1.0  0.89834  0.72222  0.64263  1.0000
  Sn  Sn4741    1.0  0.96977  0.69445  0.55930  1.0000
  Sn  Sn4742    1.0  0.88737  0.80555  0.60737  1.0000
  Sn  Sn4743    1.0  0.88737  0.69445  0.52403  1.0000
  Sn  Sn4744    1.0  0.96977  0.80555  0.64263  1.0000
  Sn  Sn4745    1.0  0.85714  0.69905  0.62500  1.0000
  Sn  Sn4746    1.0  0.92857  0.71762  0.54167  1.0000
  Sn  Sn4747    1.0  0.92857  0.78238  0.62500  1.0000
  Sn  Sn4748    1.0  0.91310  0.69213  0.75557  1.0000
  Sn  Sn4749    1.0  0.94404  0.80787  0.74443  1.0000
  Sn  Sn4750    1.0  0.94404  0.69213  0.82777  1.0000
  Sn  Sn4751    1.0  0.91310  0.80787  0.67223  1.0000
  Sn  Sn4752    1.0  0.98453  0.77547  0.75557  1.0000
  Sn  Sn4753    1.0  0.87261  0.77547  0.82777  1.0000
  Sn  Sn4754    1.0  0.98453  0.72453  0.67223  1.0000
  Sn  Sn4755    1.0  0.89834  0.77778  0.72597  1.0000
  Sn  Sn4756    1.0  0.95880  0.72222  0.77403  1.0000
  Sn  Sn4757    1.0  0.95880  0.77778  0.69070  1.0000
  Sn  Sn4758    1.0  0.89834  0.72222  0.80930  1.0000
  Sn  Sn4759    1.0  0.96977  0.69445  0.72597  1.0000
  Sn  Sn4760    1.0  0.88737  0.80555  0.77403  1.0000
  Sn  Sn4761    1.0  0.88737  0.69445  0.69070  1.0000
  Sn  Sn4762    1.0  0.96977  0.80555  0.80930  1.0000
  Sn  Sn4763    1.0  0.85714  0.69905  0.79167  1.0000
  Sn  Sn4764    1.0  0.92857  0.71762  0.70833  1.0000
  Sn  Sn4765    1.0  0.92857  0.78238  0.79167  1.0000
  Sn  Sn4766    1.0  0.91310  0.69213  0.92223  1.0000
  Sn  Sn4767    1.0  0.94404  0.80787  0.91110  1.0000
  Sn  Sn4768    1.0  0.94404  0.69213  0.99443  1.0000
  Sn  Sn4769    1.0  0.98453  0.77547  0.92223  1.0000
  Sn  Sn4770    1.0  0.87261  0.72453  0.91110  1.0000
  Sn  Sn4771    1.0  0.87261  0.77547  0.99443  1.0000
  Sn  Sn4772    1.0  0.98453  0.72453  0.83890  1.0000
  Sn  Sn4773    1.0  0.89834  0.77778  0.89263  1.0000
  Sn  Sn4774    1.0  0.95880  0.72222  0.94070  1.0000
  Sn  Sn4775    1.0  0.95880  0.77778  0.85737  1.0000
  Sn  Sn4776    1.0  0.89834  0.72222  0.97597  1.0000
  Sn  Sn4777    1.0  0.96977  0.69445  0.89263  1.0000
  Sn  Sn4778    1.0  0.88737  0.80555  0.94070  1.0000
  Sn  Sn4779    1.0  0.88737  0.69445  0.85737  1.0000
  Sn  Sn4780    1.0  0.96977  0.80555  0.97597  1.0000
  Sn  Sn4781    1.0  0.85714  0.80095  0.87500  1.0000
  Sn  Sn4782    1.0  0.85714  0.69905  0.95833  1.0000
  Sn  Sn4783    1.0  0.92857  0.71762  0.87500  1.0000
  Sn  Sn4784    1.0  0.92857  0.78238  0.95833  1.0000
  Sn  Sn4785    1.0  0.91310  0.85880  0.08890  1.0000
  Sn  Sn4786    1.0  0.94404  0.97453  0.07777  1.0000
  Sn  Sn4787    1.0  0.94404  0.85880  0.16110  1.0000
  Sn  Sn4788    1.0  0.91310  0.97453  0.00557  1.0000
  Sn  Sn4789    1.0  0.98453  0.94213  0.08890  1.0000
  Sn  Sn4790    1.0  0.87261  0.89120  0.07777  1.0000
  Sn  Sn4791    1.0  0.87261  0.94213  0.16110  1.0000
  Sn  Sn4792    1.0  0.98453  0.89120  0.00557  1.0000
  Sn  Sn4793    1.0  0.89834  0.94445  0.05930  1.0000
  Sn  Sn4794    1.0  0.95880  0.88888  0.10737  1.0000
  Sn  Sn4795    1.0  0.95880  0.94445  0.02403  1.0000
  Sn  Sn4796    1.0  0.89834  0.88888  0.14263  1.0000
  Sn  Sn4797    1.0  0.96977  0.86112  0.05930  1.0000
  Sn  Sn4798    1.0  0.88737  0.97222  0.10737  1.0000
  Sn  Sn4799    1.0  0.88737  0.86112  0.02403  1.0000
  Sn  Sn4800    1.0  0.96977  0.97222  0.14263  1.0000
  Sn  Sn4801    1.0  0.85714  0.96762  0.04167  1.0000
  Sn  Sn4802    1.0  0.85714  0.86572  0.12500  1.0000
  Sn  Sn4803    1.0  0.92857  0.88428  0.04167  1.0000
  Sn  Sn4804    1.0  0.92857  0.94905  0.12500  1.0000
  Sn  Sn4805    1.0  0.91310  0.85880  0.25557  1.0000
  Sn  Sn4806    1.0  0.94404  0.97453  0.24443  1.0000
  Sn  Sn4807    1.0  0.94404  0.85880  0.32777  1.0000
  Sn  Sn4808    1.0  0.91310  0.97453  0.17223  1.0000
  Sn  Sn4809    1.0  0.98453  0.94213  0.25557  1.0000
  Sn  Sn4810    1.0  0.87261  0.89120  0.24443  1.0000
  Sn  Sn4811    1.0  0.87261  0.94213  0.32777  1.0000
  Sn  Sn4812    1.0  0.98453  0.89120  0.17223  1.0000
  Sn  Sn4813    1.0  0.89834  0.94445  0.22597  1.0000
  Sn  Sn4814    1.0  0.95880  0.88888  0.27403  1.0000
  Sn  Sn4815    1.0  0.95880  0.94445  0.19070  1.0000
  Sn  Sn4816    1.0  0.89834  0.88888  0.30930  1.0000
  Sn  Sn4817    1.0  0.96977  0.86112  0.22597  1.0000
  Sn  Sn4818    1.0  0.88737  0.97222  0.27403  1.0000
  Sn  Sn4819    1.0  0.88737  0.86112  0.19070  1.0000
  Sn  Sn4820    1.0  0.96977  0.97222  0.30930  1.0000
  Sn  Sn4821    1.0  0.85714  0.96762  0.20833  1.0000
  Sn  Sn4822    1.0  0.85714  0.86572  0.29167  1.0000
  Sn  Sn4823    1.0  0.92857  0.88428  0.20833  1.0000
  Sn  Sn4824    1.0  0.92857  0.94905  0.29167  1.0000
  Sn  Sn4825    1.0  0.91310  0.85880  0.42223  1.0000
  Sn  Sn4826    1.0  0.94404  0.97453  0.41110  1.0000
  Sn  Sn4827    1.0  0.94404  0.85880  0.49443  1.0000
  Sn  Sn4828    1.0  0.91310  0.97453  0.33890  1.0000
  Sn  Sn4829    1.0  0.98453  0.94213  0.42223  1.0000
  Sn  Sn4830    1.0  0.87261  0.89120  0.41110  1.0000
  Sn  Sn4831    1.0  0.87261  0.94213  0.49443  1.0000
  Sn  Sn4832    1.0  0.98453  0.89120  0.33890  1.0000
  Sn  Sn4833    1.0  0.89834  0.94445  0.39263  1.0000
  Sn  Sn4834    1.0  0.95880  0.88888  0.44070  1.0000
  Sn  Sn4835    1.0  0.95880  0.94445  0.35737  1.0000
  Sn  Sn4836    1.0  0.89834  0.88888  0.47597  1.0000
  Sn  Sn4837    1.0  0.96977  0.86112  0.39263  1.0000
  Sn  Sn4838    1.0  0.88737  0.97222  0.44070  1.0000
  Sn  Sn4839    1.0  0.88737  0.86112  0.35737  1.0000
  Sn  Sn4840    1.0  0.96977  0.97222  0.47597  1.0000
  Sn  Sn4841    1.0  0.85714  0.96762  0.37500  1.0000
  Sn  Sn4842    1.0  0.85714  0.86572  0.45833  1.0000
  Sn  Sn4843    1.0  0.92857  0.94905  0.45833  1.0000
  Sn  Sn4844    1.0  0.91310  0.85880  0.58890  1.0000
  Sn  Sn4845    1.0  0.94404  0.97453  0.57777  1.0000
  Sn  Sn4846    1.0  0.94404  0.85880  0.66110  1.0000
  Sn  Sn4847    1.0  0.91310  0.97453  0.50557  1.0000
  Sn  Sn4848    1.0  0.98453  0.94213  0.58890  1.0000
  Sn  Sn4849    1.0  0.87261  0.89120  0.57777  1.0000
  Sn  Sn4850    1.0  0.87261  0.94213  0.66110  1.0000
  Sn  Sn4851    1.0  0.98453  0.89120  0.50557  1.0000
  Sn  Sn4852    1.0  0.89834  0.94445  0.55930  1.0000
  Sn  Sn4853    1.0  0.89834  0.88888  0.64263  1.0000
  Sn  Sn4854    1.0  0.96977  0.86112  0.55930  1.0000
  Sn  Sn4855    1.0  0.88737  0.86112  0.52403  1.0000
  Sn  Sn4856    1.0  0.96977  0.97222  0.64263  1.0000
  Sn  Sn4857    1.0  0.85714  0.96762  0.54167  1.0000
  Sn  Sn4858    1.0  0.85714  0.86572  0.62500  1.0000
  Sn  Sn4859    1.0  0.92857  0.88428  0.54167  1.0000
  Sn  Sn4860    1.0  0.92857  0.94905  0.62500  1.0000
  Sn  Sn4861    1.0  0.91310  0.85880  0.75557  1.0000
  Sn  Sn4862    1.0  0.94404  0.97453  0.74443  1.0000
  Sn  Sn4863    1.0  0.94404  0.85880  0.82777  1.0000
  Sn  Sn4864    1.0  0.91310  0.97453  0.67223  1.0000
  Sn  Sn4865    1.0  0.98453  0.94213  0.75557  1.0000
  Sn  Sn4866    1.0  0.87261  0.89120  0.74443  1.0000
  Sn  Sn4867    1.0  0.87261  0.94213  0.82777  1.0000
  Sn  Sn4868    1.0  0.98453  0.89120  0.67223  1.0000
  Sn  Sn4869    1.0  0.89834  0.94445  0.72597  1.0000
  Sn  Sn4870    1.0  0.95880  0.88888  0.77403  1.0000
  Sn  Sn4871    1.0  0.95880  0.94445  0.69070  1.0000
  Sn  Sn4872    1.0  0.89834  0.88888  0.80930  1.0000
  Sn  Sn4873    1.0  0.96977  0.86112  0.72597  1.0000
  Sn  Sn4874    1.0  0.88737  0.97222  0.77403  1.0000
  Sn  Sn4875    1.0  0.88737  0.86112  0.69070  1.0000
  Sn  Sn4876    1.0  0.96977  0.97222  0.80930  1.0000
  Sn  Sn4877    1.0  0.85714  0.96762  0.70833  1.0000
  Sn  Sn4878    1.0  0.85714  0.86572  0.79167  1.0000
  Sn  Sn4879    1.0  0.92857  0.88428  0.70833  1.0000
  Sn  Sn4880    1.0  0.92857  0.94905  0.79167  1.0000
  Sn  Sn4881    1.0  0.91310  0.85880  0.92223  1.0000
  Sn  Sn4882    1.0  0.94404  0.97453  0.91110  1.0000
  Sn  Sn4883    1.0  0.94404  0.85880  0.99443  1.0000
  Sn  Sn4884    1.0  0.91310  0.97453  0.83890  1.0000
  Sn  Sn4885    1.0  0.98453  0.94213  0.92223  1.0000
  Sn  Sn4886    1.0  0.87261  0.89120  0.91110  1.0000
  Sn  Sn4887    1.0  0.87261  0.94213  0.99443  1.0000
  Sn  Sn4888    1.0  0.98453  0.89120  0.83890  1.0000
  Sn  Sn4889    1.0  0.89834  0.94445  0.89263  1.0000
  Sn  Sn4890    1.0  0.95880  0.88888  0.94070  1.0000
  Sn  Sn4891    1.0  0.95880  0.94445  0.85737  1.0000
  Sn  Sn4892    1.0  0.89834  0.88888  0.97597  1.0000
  Sn  Sn4893    1.0  0.96977  0.86112  0.89263  1.0000
  Sn  Sn4894    1.0  0.88737  0.97222  0.94070  1.0000
  Sn  Sn4895    1.0  0.88737  0.86112  0.85737  1.0000
  Sn  Sn4896    1.0  0.96977  0.97222  0.97597  1.0000
  Sn  Sn4897    1.0  0.85714  0.96762  0.87500  1.0000
  Sn  Sn4898    1.0  0.85714  0.86572  0.95833  1.0000
  Sn  Sn4899    1.0  0.92857  0.88428  0.87500  1.0000
  Sn  Sn4900    1.0  0.92857  0.94905  0.95833  1.0000
